30
NC(=O)c1ccc[n+](Cc2ccccc2)c1.[Cl-]
N      -4.59245660      1.36726479     -1.16983879
C      -3.39907418      1.67076464     -0.58858747
O      -3.02052306      2.82936998     -0.47121831
C      -2.53328583      0.57800103     -0.09480340
C      -2.88907992     -0.76818995     -0.08338124
C      -1.98526869     -1.70543169      0.41169006
C      -0.74696629     -1.28584872      0.88799657
N      -0.41476175      0.02652738      0.87464599
C       0.91057092      0.45589846      1.39092784
C       2.00767166      0.05289722      0.44144907
C       2.93258975     -0.93912484      0.80410875
C       3.93816753     -1.32584790     -0.08286501
C       4.03287264     -0.72622126     -1.33618097
C       3.12652490      0.26482365     -1.70462167
C       2.11895012      0.65574296     -0.82176500
C      -1.28137744      0.95225427      0.39847897
Cl      0.00000000      0.00000000      0.00000000
H      -5.14559210      2.14581369     -1.51546908
H      -4.94958768      0.44411569     -1.36653323
H      -3.85492375     -1.11147886     -0.44362992
H      -2.24530166     -2.76268607      0.42581000
H      -0.01533476     -1.98918717      1.27681008
H       0.90839611      1.54169157      1.53730505
H       1.02835849     -0.00623563      2.37846544
H       2.89541824     -1.41962392      1.78053612
H       4.65785782     -2.09088850      0.20325000
H       4.82188860     -1.02470861     -2.02396909
H       3.21403135      0.73784442     -2.68121202
H       1.43654206      1.44239777     -1.13792765
H      -0.95630648      1.99006560      0.41375578
