26
CCCCOCCOC(N)=O
C      -3.81665582     -1.18093393     -1.46360828
C      -2.78413189     -0.65343292     -0.47968804
C      -2.01504458      0.53546105     -1.06036026
C      -0.99738386      1.10108195     -0.07414430
O      -0.00575766      0.11326805      0.19877852
C       0.97135627      0.58744651      1.13210092
C       2.02287603     -0.49954256      1.35298135
O       2.81664337     -0.71288833      0.17130214
C       3.79006503      0.19719920     -0.04086398
N       4.45352986     -0.09910858     -1.17926237
O       4.05081152      1.15935872      0.66280878
H      -3.33958736     -1.51951276     -2.38886368
H      -4.54846562     -0.40725418     -1.71698594
H      -4.35555633     -2.02876929     -1.02922345
H      -2.09188114     -1.46303417     -0.22188041
H      -3.29009414     -0.35235126      0.44498149
H      -2.71810743      1.32757082     -1.34287636
H      -1.49539148      0.21141264     -1.97032418
H      -1.49395824      1.39700918      0.85714560
H      -0.51768973      1.98284824     -0.51399120
H       0.47338089      0.80992791      2.08216084
H       1.42617076      1.50191396      0.73796167
H       2.67126600     -0.25599052      2.20271084
H       1.53342975     -1.45446782      1.57218463
H       4.11010079     -0.84302916     -1.76684015
H       5.15007500      0.54581725     -1.51876272
