24
CC1CCC(C)CC1
C      -2.91292174     -0.03083528      0.14364279
C      -1.45989076     -0.09066757     -0.32375549
C      -0.76590623      1.26040305     -0.10974544
C       0.70376921      1.21199632     -0.52374390
C       1.45988738      0.09066799      0.19993723
C       2.91292371      0.03084220     -0.26744390
C       0.76590808     -1.26040443     -0.01407962
C      -0.70376971     -1.21200217      0.39991413
H      -3.41877626     -0.98485602     -0.03845943
H      -3.46233065      0.74793447     -0.39568323
H      -2.97864422      0.18833200      1.21477578
H      -1.46068947     -0.31241386     -1.39936929
H      -0.83363511      1.55276415      0.94601750
H      -1.27787367      2.03905455     -0.68772290
H       1.17185340      2.17937468     -0.30569944
H       0.76781748      1.06616337     -1.60971290
H       1.46067290      0.31241351      1.27555082
H       2.97866079     -0.18830397     -1.33858040
H       3.41877629      0.98485897     -0.08531534
H       3.46232522     -0.74793812      0.27187483
H       1.27787410     -2.03905743      0.56389903
H       0.83364279     -1.55276343     -1.06984358
H      -0.76782154     -1.06618387      1.48588506
H      -1.17185200     -2.17937909      0.18185764
