21
O=C(O)COc1ccccc1[N+](=O)[O-]
O      -4.15347205     -0.15906423     -1.68102172
C      -3.21528528      0.16444404     -0.96483726
O      -3.26861694      1.23809248     -0.14326892
C      -1.87971093     -0.55973621     -0.96337697
O      -1.21187247     -0.33247481      0.27903412
C       0.15418350     -0.36122253      0.20210952
C       0.82711575     -1.40481150     -0.44129570
C       2.22505760     -1.43882893     -0.45401514
C       2.96288167     -0.44290213      0.18715039
C       2.30629604      0.59356956      0.84984436
C       0.90404217      0.62718161      0.85715244
N       0.23596674      1.73398396      1.53996746
O      -0.85939900      2.11609039      1.09326586
O       0.81502822      2.23757372      2.51229351
H      -2.43044642      1.38811537      0.35712154
H      -2.07328279     -1.63222353     -1.06735253
H      -1.30418073     -0.17946493     -1.81581696
H       0.28197230     -2.21553650     -0.91828760
H       2.74176788     -2.25481941     -0.95634630
H       4.05049752     -0.48041019      0.17666359
H       2.89145722      1.36244377      1.35101632
