29
CCOCCOCCOCC
C      -5.43681496     -0.05143313      0.13612304
C      -4.19331878     -0.85140681     -0.20876842
O      -3.02576944     -0.30633403      0.40034526
C      -2.54528791      0.87780776     -0.24558491
C      -1.18238055      1.25266630      0.33661875
O      -0.17983870      0.37918084     -0.19628858
C       1.10092437      0.64357243      0.37419121
C       2.12412181     -0.32145561     -0.21327873
O       3.41063657     -0.04243409      0.33937437
C       4.40223619     -0.93109807     -0.17035972
C       5.73457484     -0.57290895      0.45730294
H      -5.40345971      0.94697685     -0.31007653
H      -6.33427062     -0.55775502     -0.23114977
H      -5.52265232      0.08148861      1.21939641
H      -4.30827675     -1.86807397      0.18143514
H      -4.05991647     -0.93297093     -1.29329383
H      -2.45814202      0.70083965     -1.32338085
H      -3.25104943      1.69286427     -0.05881102
H      -0.93322419      2.28085053      0.05256048
H      -1.19935371      1.16402658      1.42876419
H       1.06170783      0.52274776      1.46342402
H       1.39935172      1.67736708      0.16283765
H       1.83251476     -1.35412034      0.01300706
H       2.15336346     -0.21359752     -1.30419259
H       4.46481616     -0.83057458     -1.25947119
H       4.13809584     -1.96411542      0.08120040
H       6.52739397     -1.23224090      0.09312740
H       6.00302348      0.46346929      0.22716529
H       5.68099458     -0.65333856      1.54806770
