28
CC(C)OP(C)(=O)OC(C)C
C      -2.75911728     -1.24354441      0.64540326
C      -2.08868273      0.12114363      0.60058801
C      -3.08826062      1.23839722      0.85835655
O      -1.53908171      0.29737559     -0.69912903
P      -0.02673878      0.84602366     -0.80074478
C       0.27358890      0.95452674     -2.54891232
O       0.23048062      2.09976784     -0.02316731
O       0.83889860     -0.42608669     -0.31609308
C       2.22996868     -0.24164325     -0.08879309
C       2.47013741     -0.17977000      1.41211153
C       2.96738763     -1.41315860     -0.71937367
H      -2.02846829     -2.03274820      0.43726324
H      -3.20891146     -1.43427158      1.62445915
H      -3.53737900     -1.32588631     -0.12140843
H      -1.29699179      0.15488536      1.35806033
H      -3.87636126      1.24447917      0.09723412
H      -2.59418221      2.21429389      0.80543887
H      -3.55266709      1.13687358      1.84389555
H       1.31342103      1.22730933     -2.74854092
H      -0.37131652      1.71318674     -3.00096884
H       0.07109190     -0.00226624     -3.03852906
H       2.57215724      0.68890309     -0.55567866
H       2.10928243     -1.08894580      1.90575860
H       1.91858186      0.65627086      1.85488954
H       3.53300242     -0.05463313      1.63990576
H       2.62647946     -2.36588180     -0.29913463
H       2.76548606     -1.45453008     -1.79525813
H       4.04819456     -1.33007060     -0.57041363
