23
C=CN1CCCCCC1=O
C       3.24528196      0.05947427      0.17278224
C       2.20301119      0.53385135      0.86352190
N       0.88386278      0.08773119      0.82366243
C       0.50228238     -1.08847321      0.03487374
C      -0.20169322     -0.71271005     -1.26545693
C      -1.68672085     -0.41074127     -1.07640090
C      -1.98168421      0.72775300     -0.10361579
C      -1.53405170      0.44081828      1.32599722
C      -0.07766108      0.80415710      1.55297497
O       0.20046158      1.71820213      2.33420743
H       4.22216234      0.51742707      0.30200598
H       3.19093687     -0.75571698     -0.53567856
H       2.38233789      1.38135850      1.52755271
H      -0.13991763     -1.73082938      0.64878640
H       1.37863040     -1.70406514     -0.18577255
H       0.29730537      0.13985174     -1.74155133
H      -0.12156552     -1.55676590     -1.96146115
H      -2.20237350     -1.31878621     -0.73925182
H      -2.11660777     -0.15744663     -2.05323257
H      -3.06686248      0.88868285     -0.09928812
H      -1.52587171      1.65532106     -0.47102345
H      -1.72758762     -0.59151143      1.63282019
H      -2.12367548      1.07241767      2.00337084
