12
Brc1ccc(Br)cc1
Br     -3.27117647      0.19691877      0.14222748
C      -1.38606452      0.08343850      0.06026442
C      -0.62734564      1.24871552     -0.05131179
C       0.76554367      1.16486614     -0.11187341
C       1.38606451     -0.08343853     -0.06026484
Br      3.27117652     -0.19691873     -0.14222673
C       0.62734564     -1.24871553      0.05131166
C      -0.76554369     -1.16486619      0.11187278
H      -1.10847446      2.22252164     -0.09171060
H       1.35450140      2.07425502     -0.19879884
H       1.10847451     -2.22252158      0.09171151
H      -1.35450145     -2.07425503      0.19879837
