36
CCC(=O)N(C)c1ccc(S(=O)(=O)N(C)C)cc1
C      -4.97196888      2.37010741      0.05039902
C      -4.41470175      0.95878572      0.16308380
C      -2.89193083      0.93355575      0.26726711
O      -2.26662358      1.99549930      0.24652479
N      -2.29379752     -0.34021289      0.35301427
C      -3.06742366     -1.56532709      0.13667563
C      -0.86535297     -0.48499091      0.50568129
C      -0.09551326      0.48604762      1.16703870
C       1.28754163      0.34056640      1.32792434
C       1.92706731     -0.78304200      0.80952596
S       3.68359867     -0.98190424      1.02579555
O       3.97427511     -2.39568166      0.90501030
O       4.06019401     -0.24331604      2.21258163
N       4.33364692     -0.18777435     -0.33203665
C       4.20820989      1.27977568     -0.36989410
C       4.11162321     -0.82144926     -1.64266128
C       1.18678312     -1.78103089      0.17778701
C      -0.19723265     -1.62808174      0.02856541
H      -4.58604898      2.87551519     -0.84108711
H      -4.69915597      2.97208005      0.92352283
H      -6.06390292      2.34332353     -0.01808618
H      -4.72182922      0.39351141     -0.72306642
H      -4.83549193      0.49327265      1.06059211
H      -4.10781808     -1.45504948      0.44650880
H      -3.04750844     -1.81086279     -0.92964155
H      -2.65806690     -2.38965364      0.72965443
H      -0.55780515      1.36573209      1.60870015
H       1.84655556      1.10506208      1.86324430
H       4.92056463      1.68909824     -1.09389653
H       3.20064039      1.58207724     -0.66842723
H       4.45160707      1.72483861      0.59856637
H       4.31298458     -1.89533249     -1.60281436
H       3.08940039     -0.65407553     -1.99326697
H       4.80319537     -0.39691429     -2.37792969
H       1.67274862     -2.67738575     -0.20181714
H      -0.72846376     -2.41676393     -0.49679969
