20
CN(C)c1ccccc1
C      -1.93885027     -1.33859239      0.22254340
N      -1.32654649     -0.02742247      0.01692568
C      -2.17503357      0.96978109     -0.63270186
C       0.06226607      0.05138138     -0.15391092
C       0.92022804     -1.01048407      0.18850528
C       2.31156371     -0.93090095      0.03466733
C       2.89380157      0.22751295     -0.46047551
C       2.08294226      1.30357094     -0.79318507
C       0.69263650      1.21392078     -0.63561807
H      -1.58193770     -1.80261264      1.14821264
H      -3.02643558     -1.25663096      0.32975840
H      -1.74004305     -2.00409962     -0.62480560
H      -2.04253518      0.95234543     -1.72016025
H      -3.23524808      0.78423215     -0.42637363
H      -1.96850862      1.97560298     -0.25160725
H       0.52756734     -1.93812466      0.59259287
H       2.93352990     -1.77840797      0.30969750
H       3.97125598      0.29394535     -0.57871837
H       2.52429123      2.22135404     -1.17218035
H       0.11505592      2.09362864     -0.90113782
