38
CC(C)=NNC(=N)N1Cc2cccc3cccc(c23)C1
C       3.80191993      1.96222648     -1.04154677
C       4.34242829      0.56695751     -0.84599662
C       5.79288323      0.33603513     -1.18834051
N       3.64839528     -0.44723378     -0.42380595
N       2.32452959     -0.24303331     -0.14977222
C       1.48741167     -1.25823760      0.23765482
N       1.92708443     -2.46212496      0.42240564
N       0.16904229     -0.89588042      0.37433937
C      -0.81065564     -1.99257244      0.38636767
C      -2.21472854     -1.46651889      0.18804325
C      -3.20809802     -2.29922021     -0.34803679
C      -4.51009589     -1.83052863     -0.50655273
C      -4.83564111     -0.53053391     -0.11985080
C      -3.86321536      0.31598256      0.43372208
C      -4.17566206      1.62131553      0.84237422
C      -3.19961996      2.44340074      1.40520238
C      -1.89760172      1.97341806      1.56139881
C      -1.55666196      0.67839229      1.14379179
C      -2.54001884     -0.15941275      0.58981457
C      -0.15246732      0.15950330      1.34466851
H       3.25346139      2.28405681     -0.15236384
H       3.13850030      1.97558198     -1.91037960
H       4.62155987      2.66496669     -1.21437693
H       5.95525800      0.56759874     -2.24446696
H       6.07537098     -0.70342176     -1.00133082
H       6.41810574      0.99118372     -0.57563351
H       1.82318447      0.48079877     -0.65725811
H       2.93621929     -2.37159983      0.21981877
H      -0.76328730     -2.54258073      1.33467483
H      -0.58519605     -2.68869895     -0.43159442
H      -2.96707028     -3.31713725     -0.64738032
H      -5.27353720     -2.47883656     -0.92888142
H      -5.85847581     -0.18397756     -0.24877749
H      -5.18731946      2.00489210      0.73066619
H      -3.45793502      3.44953426      1.72551142
H      -1.14955135      2.62167042      2.01157240
H      -0.05242238     -0.22532622      2.36769981
H       0.54390652      0.99936070      1.23277517
