18
O=C([O-])c1ccccc1C(=O)O.[K+]
O       2.15393259     -1.42532925      1.13800955
C       2.06255248     -0.22318460      0.73587022
O       3.00026037      0.62567952      0.68580162
C       0.69554187      0.22146552      0.32023216
C       0.31863181      1.54655857      0.64118922
C      -0.93804472      2.05310744      0.31383855
C      -1.84875956      1.24521058     -0.35012608
C      -1.49247278     -0.06189867     -0.68742822
C      -0.22535502     -0.59823589     -0.36092117
C      -0.00764780     -1.99531831     -0.86505362
O      -0.61030261     -2.39740164     -1.85634989
O       0.75493159     -2.83164779     -0.14123899
K       0.00000000      0.00000000      0.00000000
H       1.03669219      2.18539893      1.15706246
H      -1.19368168      3.07535016      0.57537389
H      -2.82926220      1.62726111     -0.61703557
H      -2.21480196     -0.67630933     -1.22353973
H       1.33778543     -2.37070634      0.53431560
