52
CN1CCN(CCCN2c3ccccc3Sc3ccc(C(F)(F)F)cc32)CC1
C       6.05012950     -0.62648570     -0.92511509
N       5.01944405     -0.17815951      0.00659399
C       3.93734002      0.52857550     -0.70160749
C       2.79276153      0.94675859      0.25198746
N       2.20904749     -0.15641640      1.04926275
C       1.38426794     -1.07846302      0.25439217
C       0.09113575     -0.45676360     -0.28849251
C      -0.78581741      0.14300336      0.82123519
N      -2.05384668      0.70689022      0.27521360
C      -1.87796097      1.93744918     -0.41985636
C      -1.21672889      3.01552008      0.20267260
C      -1.03352316      4.23889738     -0.44626376
C      -1.52107555      4.41853659     -1.73345428
C      -2.19964061      3.37737472     -2.36316229
C      -2.39165899      2.14601186     -1.71364653
S      -3.25428847      0.88073832     -2.62365103
C      -3.65100657     -0.28411497     -1.33602264
C      -4.60956124     -1.26466762     -1.63965641
C      -4.97329533     -2.22700456     -0.69819399
C      -4.38608620     -2.22244069      0.56860425
C      -4.78154522     -3.22863843      1.61998517
F      -3.70330739     -3.81130956      2.21631186
F      -5.53467963     -4.25460711      1.13393582
F      -5.51040208     -2.67279787      2.62641756
C      -3.42671271     -1.23800096      0.86587158
C      -3.02255524     -0.27200582     -0.07820458
C       3.32045876     -0.87393884      1.71680074
C       4.47417351     -1.30743416      0.77975924
H       5.66087255     -1.33332499     -1.66661726
H       6.87170455     -1.11015965     -0.38520335
H       6.48268318      0.22731062     -1.45760785
H       4.34231436      1.43647829     -1.16496024
H       3.53178826     -0.09272625     -1.51051119
H       3.18538983      1.69347865      0.95621544
H       2.01904448      1.47624770     -0.31364998
H       1.94558493     -1.50723108     -0.58380401
H       1.08880704     -1.92359794      0.89013633
H      -0.46614296     -1.24363466     -0.81213644
H       0.32307727      0.29736454     -1.04846787
H      -0.98653188     -0.62631856      1.57553080
H      -0.22792650      0.90778713      1.37115590
H      -0.86140495      2.92605662      1.22559360
H      -0.52247177      5.05145577      0.06293761
H      -1.38420370      5.36804861     -2.24417442
H      -2.58225668      3.53191729     -3.36936758
H      -5.08398353     -1.28131324     -2.61895787
H      -5.72374288     -2.97184595     -0.95916523
H      -3.01506791     -1.21080991      1.87373753
H       3.73027539     -0.21237857      2.49209848
H       2.93683510     -1.74894452      2.25545664
H       4.12034956     -2.10124569      0.10920781
H       5.26994006     -1.73912115      1.39936805
