24
O=C([O-])[O-].O=C([O-])[O-].O=C([O-])[O-].[NH4+].[NH4+].[Zn+2].[Zn+2]
O      -0.16976569      1.26244446     -0.01160328
C       0.00540924      0.02781063     -0.00030526
O      -1.11859151     -0.78021914      0.01374506
O       1.28294796     -0.51003596     -0.00183652
O      -0.03098254      1.27777340     -0.06379562
C       0.00601332      0.03526206     -0.00181559
O      -1.18567831     -0.68579104      0.04371871
O       1.21064754     -0.62724442      0.02189249
O      -0.00984206      1.28273552      0.00659863
C      -0.00552330      0.02700137      0.00024099
O      -1.19608416     -0.66345122      0.01965376
O       1.21144951     -0.64628568     -0.02649338
N       0.00544985      0.01691239     -0.01017262
N      -0.00015607      0.00370063     -0.00142539
Zn      0.00000000      0.00000000      0.00000000
Zn      0.00000000      0.00000000      0.00000000
H      -0.17173314      0.86473819      0.55703279
H       0.11315911     -0.82158532      0.61283525
H       0.88088223      0.09461921     -0.55991294
H      -0.82775805     -0.15468446     -0.59978248
H      -0.43587313      0.83027412      0.47206391
H       0.27074602     -0.74271706      0.66344195
H      -0.70113614     -0.40858705     -0.64916685
H       0.86641932      0.31732935     -0.48491362
