25
CCC(CCC(=O)O)C(C)=O
C      -2.03129550     -0.00398033      1.54917850
C      -1.86394815     -0.59457870      0.15473335
C      -0.47273822     -0.38794913     -0.47117487
C       0.63491143     -1.06483852      0.36409564
C       1.98180206     -1.12331562     -0.36630502
C       3.11530032     -0.62517670      0.49687182
O       3.99707714     -1.34935037      0.93526905
O       3.07861176      0.70270601      0.73681020
C      -0.16726471      1.09677261     -0.70080176
C      -1.14047026      1.89792188     -1.52730822
O       0.86110792      1.61683087     -0.25612295
H      -1.37508599     -0.49391714      2.27427570
H      -3.06175194     -0.14523449      1.89153197
H      -1.82026223      1.06938625      1.55960002
H      -2.63186883     -0.16455169     -0.49894184
H      -2.07701757     -1.66972976      0.20419330
H      -0.48051762     -0.85645744     -1.46457163
H       0.74392933     -0.55382270      1.32841076
H       0.32747198     -2.09307047      0.59436046
H       1.99352104     -0.55965201     -1.30556216
H       2.20304489     -2.16284674     -0.63783923
H       2.29783071      1.16511557      0.33963550
H      -2.03008099      2.12816672     -0.93742589
H      -1.41324839      1.33695051     -2.42468183
H      -0.66905820      2.83462139     -1.83823090
