24
Oc1ccccc1Oc1ccccc1
O      -1.82724112     -2.41554239     -1.08233722
C      -2.07902869     -1.19799165     -0.51478931
C      -3.31136309     -0.60353161     -0.75724511
C      -3.59946041      0.63723270     -0.18671825
C      -2.65715011      1.27194632      0.62685681
C      -1.41964728      0.67092446      0.86810378
C      -1.12411635     -0.56067516      0.27959841
O       0.06260923     -1.22117456      0.50675328
C       1.22392759     -0.50983105      0.30470333
C       2.22987910     -0.66035815      1.25975628
C       3.44629156      0.00369112      1.09904113
C       3.66033223      0.80451620     -0.02323021
C       2.66202483      0.93679446     -0.98916711
C       1.44419481      0.27368766     -0.83118482
H      -0.93345794     -2.67363926     -0.78953875
H      -4.04373551     -1.10477631     -1.38313728
H      -4.56267396      1.10651362     -0.37082568
H      -2.89004380      2.23334790      1.07800902
H      -0.69865481      1.16292635      1.51469261
H       2.06505472     -1.28930006      2.13024107
H       4.22813654     -0.10598467      1.84609626
H       4.60907251      1.32034558     -0.14925345
H       2.83450413      1.55182576     -1.86873980
H       0.68054583      0.36905275     -1.59830158
