15
O=C1CCCCO1
O      -1.72126853      2.32239778     -0.05163254
C      -0.91811210      1.39798223      0.03706885
C      -1.38245164     -0.03149567      0.14861709
C      -0.37445162     -1.05229541     -0.33618843
C       0.97251515     -0.76132872      0.29005694
C       1.39897102      0.63447015     -0.11299182
O       0.40720539      1.63844075      0.15943891
H      -1.62416439     -0.21244471      1.20240774
H      -2.30476189     -0.14010902     -0.43288529
H      -0.29421663     -1.01009571     -1.42935139
H      -0.70691944     -2.06236238     -0.07319977
H       0.89044784     -0.82569300      1.38169887
H       1.71782293     -1.49566615     -0.03240525
H       2.30600780      0.91593764      0.43178818
H       1.63337611      0.68226223     -1.18242209
