50
CC(=O)NC(C)c1ccc(Nc2ncc3cc(-c4ccncc4)ccc3n2)cc1
C       7.67947489      1.84186847     -1.51174196
C       7.43205426      0.53118029     -0.81455539
O       8.34958424     -0.21276384     -0.48467956
N       6.10773196      0.26556905     -0.56963973
C       5.67209897     -0.95063104      0.09645536
C       5.72028410     -2.15266900     -0.85204498
C       4.29588258     -0.72770145      0.69713663
C       3.13477304     -0.70524288     -0.08608356
C       1.87981118     -0.46967024      0.49229053
C       1.74122717     -0.24456293      1.86353154
N       0.52022565      0.00561903      2.49644298
C      -0.79946458      0.08870506      2.06273788
N      -1.69663727      0.29851019      3.03936288
C      -2.98978512      0.38539054      2.67441408
C      -3.43198790      0.27351550      1.36878801
C      -4.78776959      0.36337940      0.98560861
C      -5.16286425      0.23487545     -0.35857008
C      -6.57203824      0.32225407     -0.76848094
C      -7.17325629     -0.69874010     -1.51395972
C      -8.50592658     -0.57393654     -1.87484935
N      -9.27411386      0.48625350     -1.55212489
C      -8.68308581      1.46470103     -0.83699147
C      -7.35914929      1.42828661     -0.42710887
C      -4.14584185      0.01778218     -1.29713252
C      -2.80390810     -0.06643430     -0.89971571
C      -2.42615451      0.05805933      0.42959555
N      -1.13349620     -0.03111964      0.76894168
C       2.91021960     -0.24969590      2.63935281
C       4.16726223     -0.48424434      2.06944070
H       8.40486482      1.68816974     -2.31565151
H       6.76295558      2.24468358     -1.95184844
H       8.07459463      2.56217196     -0.79020753
H       5.39972929      0.92657186     -0.85972392
H       6.38368701     -1.15591597      0.90714631
H       6.74826331     -2.35550166     -1.17172513
H       5.13345458     -1.98260702     -1.76125355
H       5.33752195     -3.05508564     -0.36297156
H       3.18499716     -0.86675286     -1.16040089
H       1.01368036     -0.46773295     -0.16231960
H       0.53673194      0.10436994      3.50074941
H      -3.68162757      0.55317941      3.49510782
H      -5.55069969      0.52019950      1.74644588
H      -6.62097919     -1.58727898     -1.80289929
H      -9.00453909     -1.34948392     -2.44959371
H      -9.32058007      2.31002887     -0.59416799
H      -6.95054667      2.25995306      0.13766336
H      -4.38384655     -0.07696162     -2.35530166
H      -2.03506114     -0.23222670     -1.65125682
H       2.85566145     -0.06658027      3.71015655
H       5.04658746     -0.47173783      2.71070178
