38
CCCCC(CC)COCC(O)CO
C      -4.70118316      1.86614934      0.60918739
C      -3.20912433      1.67909690      0.83397879
C      -2.74075082      0.29877314      0.36887942
C      -1.23781527      0.11503307      0.60626634
C      -0.66089036     -1.19268189      0.00762545
C      -1.30095179     -2.44028227      0.65100889
C      -0.81031501     -3.76085741      0.07173882
C       0.87314133     -1.20277010      0.15476188
O       1.42486044     -0.06776854     -0.51763910
C       2.85101609     -0.00995620     -0.37889143
C       3.33755168      1.23125234     -1.12572415
O       2.70778199      2.40010370     -0.56871270
C       4.84963898      1.40701031     -1.01430622
O       5.24256549      2.59007001     -1.70960563
H      -5.27833426      1.12052816      1.16530827
H      -5.01386758      2.85900467      0.94737553
H      -4.95249749      1.77393793     -0.45225516
H      -2.98658217      1.80786543      1.89963446
H      -2.66417847      2.46044484      0.29154649
H      -3.30609070     -0.46612013      0.91188770
H      -2.96297280      0.17668990     -0.69792820
H      -0.71772018      0.97446470      0.16547962
H      -1.03404475      0.14623803      1.68428338
H      -0.89427076     -1.19029079     -1.06580696
H      -1.12358033     -2.43618809      1.73328963
H      -2.38636462     -2.41112295      0.50787071
H       0.23128038     -3.95778832      0.34082709
H      -0.89901242     -3.76975455     -1.01905606
H      -1.40979800     -4.58761792      0.46690877
H       1.29936629     -2.10305298     -0.29881338
H       1.15272766     -1.17362046      1.21471701
H       3.09445535      0.06670107      0.68710176
H       3.30230220     -0.91563661     -0.79839188
H       3.03157368      1.19669425     -2.17748592
H       1.75948860      2.16405416     -0.50993254
H       5.15803519      1.52630582      0.02951278
H       5.38493208      0.55750714     -1.44814398
H       4.58962783      3.26758430     -1.43957856
