36
CCOP(=S)(OCC)SCn1c(=O)oc2cc(Cl)ccc21
C      -3.44897148     -2.94221397     -0.50962568
C      -3.58277553     -1.49427700     -0.93728421
O      -2.27972147     -0.95621643     -1.10593518
P      -2.09569176      0.65576230     -1.24907043
S      -3.09511396      1.39921561     -2.74816644
O      -2.67536607      1.10555722      0.20140680
C      -2.71103093      2.48556474      0.53213615
C      -2.67874621      2.61900098      2.04102118
S      -0.01676000      0.94423317     -1.17800912
C       0.41426906     -0.03626720      0.27213537
N       1.75912900      0.22044413      0.69509000
C       2.12007398      1.09085080      1.70137281
O       1.35297060      1.74861312      2.39108281
O       3.51326469      1.13237559      1.85331248
C       3.94898174      0.25401265      0.87356205
C       5.26609118     -0.05154226      0.60527113
C       5.50759838     -0.95720479     -0.42932133
Cl      7.12925540     -1.38470312     -0.81896368
C       4.44853669     -1.52867465     -1.16257623
C       3.11986894     -1.20196737     -0.86888032
C       2.90873797     -0.30708640      0.15800300
H      -2.89213180     -3.51596903     -1.25821765
H      -4.43176387     -3.40134020     -0.37279941
H      -2.89016353     -3.01622382      0.42928878
H      -4.13204677     -0.93236745     -0.17599772
H      -4.12633688     -1.43770548     -1.88487092
H      -3.63543116      2.91788536      0.13756181
H      -1.85939455      3.01261666      0.09219697
H      -2.72471167      3.66909100      2.34220125
H      -3.51913033      2.08378215      2.49520207
H      -1.76318956      2.17538485      2.44630798
H       0.29575658     -1.10264148      0.05619640
H      -0.26717670      0.21973668      1.08866231
H       6.07291071      0.39614563      1.17370501
H       4.66272945     -2.22839652     -1.96794771
H       2.30547984     -1.63547549     -1.43739733
