36
O=[N+]([O-])c1cccc(OC2OC(CO)C(O)C(O)C2O)c1
O       4.39231235      1.78517363      2.99323471
N       4.83054215      1.47007736      1.87780154
O       5.98109468      1.70641806      1.48253224
C       3.92774782      0.76053219      0.96422166
C       4.40021176      0.32467690     -0.27859287
C       3.53460678     -0.35234474     -1.13649383
C       2.20921820     -0.59269509     -0.75715845
C       1.73680808     -0.15646507      0.48288554
O       0.47059212     -0.32286020      0.96946705
C      -0.49561826     -0.99669280      0.15221613
O      -0.81067266     -0.27076241     -1.04647527
C      -1.79555812      0.75276340     -0.82475827
C      -1.86276932      1.62089096     -2.08432659
O      -0.58151767      2.19957227     -2.34152017
C      -3.16085099      0.11914785     -0.51149420
O      -3.89101662      0.99283355      0.35837063
C      -2.99200068     -1.25236699      0.15949964
O      -4.15893280     -1.54355138      0.94564044
C      -1.74240555     -1.25635969      1.03678795
O      -1.65707787     -2.52009715      1.71952160
C       2.60113639      0.52259374      1.34632581
H       5.42719369      0.50389246     -0.59045977
H       3.89000626     -0.69289419     -2.10717190
H       1.57123823     -1.11785242     -1.46229926
H      -0.08414378     -1.96918841     -0.14700677
H      -1.45001279      1.38947243      0.00112423
H      -2.12697995      1.02190078     -2.96208202
H      -2.58970229      2.43087716     -1.97453243
H       0.06699682      1.48115135     -2.21693839
H      -3.76935123     -0.00510710     -1.41444803
H      -4.55174518      0.41432978      0.79806101
H      -2.91020146     -2.04053711     -0.59911753
H      -3.90639026     -2.31377108      1.49619725
H      -1.83667148     -0.49807536      1.82448044
H      -0.89273108     -2.45902578      2.32391265
H       2.22664473      0.86434311      2.30951837
