24
O=[N+]([O-])c1ccc(-c2nc3ccccc3[nH]2)o1
O      -5.90476763     -0.83622839     -0.35169471
N      -4.74214740     -1.25322002     -0.26554101
O      -4.40009983     -2.43990105     -0.18111109
C      -3.71243723     -0.26356615     -0.26467827
C      -3.75840585      1.10586351     -0.34318541
C      -2.40430951      1.52270660     -0.29293707
C      -1.61842779      0.38341643     -0.18709788
C      -0.19658065      0.29395151     -0.10507555
N       0.63642386      1.31299304     -0.11648574
C       1.88956438      0.75628027     -0.01766611
C       3.14653057      1.37669695      0.01601160
C       4.28927633      0.57336634      0.12254770
C       4.18245238     -0.81814807      0.19400898
C       2.93664560     -1.45590714      0.16189140
C       1.81521722     -0.63121873      0.05532398
N       0.47190628     -0.89804775     -0.00266270
O      -2.43625082     -0.72102632     -0.17010321
H      -4.64386971      1.72144949     -0.42535289
H      -2.02311168      2.53590830     -0.32853745
H       3.22289539      2.45676551     -0.03982280
H       5.27061862      1.04139115      0.14974621
H       5.08647265     -1.41874106      0.27634150
H       2.85552234     -2.53600323      0.21745261
H       0.03688246     -1.80878121      0.02432119
