33
O=C1CCOc2cc(OCc3cccc(F)c3)ccc21
O      -4.94280076      0.25158558     -2.29285976
C      -4.48619876      0.16778021     -1.15796451
C      -5.35777038     -0.00591479      0.05388091
C      -4.66207629      0.63218320      1.23800162
O      -3.38750685      0.02988734      1.48767047
C      -2.56130061      0.07534900      0.39345091
C      -1.18912493     -0.00463995      0.64504257
C      -0.28191097      0.03968178     -0.41594223
O       1.08014758     -0.01873820     -0.31363598
C       1.63090465     -0.15927498      0.99383979
C       3.13168508     -0.22915547      0.86042590
C       3.75474294     -1.42459904      0.46614730
C       5.14368013     -1.49244361      0.32675901
C       5.92246248     -0.36370881      0.57313764
C       5.30603539      0.82312807      0.95102938
F       6.05459754      1.90973474      1.18259816
C       3.92416069      0.90271888      1.09306642
C      -0.75953224      0.15514263     -1.72661227
C      -2.13046514      0.21429669     -1.98413345
C      -3.02924360      0.16639434     -0.91833394
H      -5.51176050     -1.07873241      0.20993958
H      -6.32210870      0.48065051     -0.12101219
H      -5.26850383      0.49400307      2.13937638
H      -4.52864510      1.71335134      1.09989731
H      -0.86492826     -0.09098153      1.67657157
H       1.35520803      0.69779961      1.62106599
H       1.27246966     -1.08027198      1.47133698
H       3.15524986     -2.30902083      0.25747906
H       5.61493527     -2.42302219      0.02075447
H       7.00175409     -0.39899616      0.46723711
H       3.47980541      1.85128319      1.37960347
H      -0.05498596      0.18956956     -2.55546807
H      -2.48897594      0.28496023     -3.00864575
