32
CCCCCCCC(=O)OCC
C      -4.31027569      1.82883345     -1.09471144
C      -3.30107623      1.28954425     -0.09363775
C      -2.54784424      0.08265820     -0.65262047
C      -1.53326838     -0.45729428      0.35816870
C      -0.77639215     -1.66141916     -0.20665030
C       0.16072450     -2.32804824      0.80802851
C       1.29843342     -1.44268975      1.31616287
C       2.27917848     -1.06156027      0.23169047
O       2.49161875     -1.70493624     -0.78620325
O       2.92031592      0.09040957      0.57782534
C       3.88873248      0.53359288     -0.38035115
C       4.50312534      1.82272256      0.12916786
H      -5.05427302      1.06768528     -1.35055439
H      -4.83723346      2.69120255     -0.67453903
H      -3.81518321      2.14948852     -2.01688346
H      -3.82380169      1.00818455      0.82793012
H      -2.59173514      2.08422736      0.16525019
H      -3.26272321     -0.70704053     -0.91408872
H      -2.02955451      0.36828896     -1.57615450
H      -0.82925401      0.34132740      0.61685240
H      -2.05206841     -0.74732370      1.27970621
H      -0.21381581     -1.35768953     -1.09697536
H      -1.50173427     -2.41423209     -0.54030308
H       0.58136504     -3.23066095      0.34739271
H      -0.43044452     -2.66560340      1.66825023
H       1.86220364     -1.98275635      2.08538536
H       0.89391862     -0.53631865      1.77774108
H       4.66857367     -0.22735191     -0.49638515
H       3.40022420      0.71272408     -1.34474017
H       5.25225335      2.20162805     -0.57162363
H       4.97774282      1.66492660      1.10330279
H       3.73226772      2.58748079      0.27073034
