15
C=Cc1ccncc1
C      -2.62261816     -0.20274084      0.00927340
C      -1.47394552     -0.79510985     -0.34199816
C      -0.13747302     -0.23221885     -0.10682726
C       0.11860865      1.13954067     -0.14713808
C       1.41739842      1.57979470      0.05619134
N       2.46324473      0.75869927      0.28574787
C       2.19712865     -0.56364138      0.30687006
C       0.93377711     -1.10028641      0.11283006
H      -2.65783059      0.75682843      0.51418598
H      -3.57283097     -0.68859494     -0.19143240
H      -1.50767234     -1.77186773     -0.82018828
H      -0.66571595      1.86161523     -0.34340102
H       1.65726663      2.63899333      0.03391449
H       3.05452209     -1.20526098      0.48873224
H       0.79614026     -2.17575066      0.14323976
