20
Cc1ccc(C(=O)O)cc1[N+](=O)[O-]
C      -2.69441731     -0.95727316      0.05131798
C      -1.23132912     -0.61227914      0.01604292
C      -0.29032666     -1.64643407     -0.10081595
C       1.08071430     -1.36796164     -0.13431906
C       1.54177415     -0.04779569     -0.05715142
C       3.00515408      0.18824510     -0.09489065
O       3.86306900     -0.67077516     -0.16928424
O       3.31892920      1.49357214     -0.04076511
C       0.62366700      1.00017197      0.04789670
C      -0.74865586      0.70953379      0.07388058
N      -1.66595957      1.83978367      0.16670235
O      -2.58501209      1.90048369     -0.66035369
O      -1.44635814      2.67020381      1.05875034
H      -3.20964016     -0.39646652      0.83773891
H      -2.84493322     -2.01970990      0.27239257
H      -3.15769183     -0.74615383     -0.91727770
H      -0.61566110     -2.68437043     -0.16297094
H       1.79025756     -2.19047459     -0.22065515
H       4.29925583      1.50637947     -0.07118628
H       0.96716393      2.03132046      0.10494783
