28
Cc1cc(=O)n(O)c2ccc3ccccc3c12
C      -0.13383978     -2.84474858      0.11298304
C      -0.98455813     -1.61140657      0.02638479
C      -2.31800364     -1.80181243      0.03720809
C      -3.28439083     -0.69524686      0.09203728
O      -4.49431872     -0.90593420      0.04560661
N      -2.73705907      0.54616996      0.23281825
O      -3.64506318      1.62917218      0.31732982
C      -1.36069900      0.83802527      0.19979480
C      -0.95048276      2.16651339      0.32735237
C       0.39411562      2.49294687      0.26420581
C       1.35529974      1.51107694      0.02980441
C       2.69599455      1.92363245     -0.06309904
C       3.71295243      1.01878057     -0.33618001
C       3.39247323     -0.31028478     -0.53449733
C       2.05950391     -0.73129011     -0.43719985
C       0.98087862      0.14274042     -0.12359391
C      -0.41648913     -0.21361993      0.02142936
H       0.31272386     -3.08004163     -0.85754773
H      -0.72068924     -3.72673641      0.39913968
H       0.63671903     -2.74517997      0.88377022
H      -2.76808723     -2.78858148      0.04711771
H      -4.50444673      1.16656674      0.22454132
H      -1.67573283      2.96206473      0.48012216
H       0.67781648      3.53785495      0.37610175
H       2.96191944      2.97128694      0.06912351
H       4.74309707      1.35532428     -0.40963554
H       4.17179005     -1.02936503     -0.77446683
H       1.89857625     -1.77790773     -0.65065074
