18
OCc1cc(O)ccc1O
O       2.86589915      0.36354531      0.08850960
C       1.86994999     -0.56937069      0.50529683
C       0.47836517     -0.13279788      0.12212875
C      -0.59578318     -0.97073375      0.47828735
C      -1.90485920     -0.61877681      0.15042892
O      -2.95980194     -1.41519702      0.48549948
C      -2.17716397      0.55949385     -0.53092858
C      -1.12694738      1.39983891     -0.89084820
C       0.18379535      1.05310636     -0.56571683
O       1.15576640      1.93185118     -0.95486675
H       3.71956256     -0.00566490      0.37982229
H       2.09481505     -1.53262941      0.03550409
H       1.93700055     -0.66795552      1.59383827
H      -0.39859220     -1.89636306      1.01185396
H      -2.62708528     -2.19768694      0.95337369
H      -3.20005858      0.82387160     -0.78121152
H      -1.32553550      2.32501950     -1.42430586
H       2.01067301      1.55044927     -0.65666549
