19
Cc1ccc(N)cc1N
C      -2.35541647     -0.90177445      0.53809379
C      -0.93594949     -0.52656130      0.21530532
C       0.03842084     -1.53425302      0.14982508
C       1.37362415     -1.22116730     -0.11275370
C       1.77246085      0.10535251     -0.25538047
N       3.09537224      0.41290311     -0.60104452
C       0.79029989      1.10062315     -0.26096389
C      -0.56699137      0.80034316     -0.06233097
N      -1.48488556      1.85850737      0.05766813
H      -2.99574945     -0.74335555     -0.33546981
H      -2.72813540     -0.30579976      1.37749308
H      -2.43736763     -1.95495138      0.82747958
H      -0.23570690     -2.57516556      0.30504195
H       2.10163758     -2.02438980     -0.18295384
H       3.36306872      1.36396040     -0.36754228
H       3.76990885     -0.26816084     -0.26692989
H       1.08590303      2.13306295     -0.42520347
H      -2.44219796      1.59126882     -0.14466790
H      -1.20829594      2.68955750     -0.45566619
