27
CC(=O)N[C@H](CC(C)C)C(=O)O
C       3.13437544     -1.73337042      0.90104200
C       2.10488476     -0.67433171      1.18939982
O       1.97051977     -0.17872159      2.30264694
N       1.34821007     -0.31473054      0.09671708
C       0.44642467      0.83638673      0.17320203
C      -0.74712209      0.67032048     -0.77540688
C      -1.64301431     -0.54853124     -0.47532891
C      -2.74455566     -0.65292059     -1.53365913
C      -2.27040875     -0.48260817      0.91766168
C       1.23938510      2.08045120     -0.23257360
O       2.23682889      2.10339198     -0.93998136
O       0.70161977      3.22729561      0.22907615
H       2.93020823     -2.24426700     -0.04418219
H       3.11637536     -2.47763511      1.70199164
H       4.12215889     -1.26818752      0.85055994
H       1.76702052     -0.48516242     -0.81058040
H       0.12087906      0.97295758      1.20964281
H      -0.37537445      0.58847162     -1.80639809
H      -1.35795439      1.58276827     -0.74850552
H      -1.03890155     -1.46211257     -0.53647775
H      -3.39471452      0.22852650     -1.51964956
H      -3.36803462     -1.53660619     -1.36084132
H      -2.31363529     -0.74124263     -2.53659286
H      -2.83164347      0.44751595      1.05675231
H      -2.96007769     -1.31943099      1.07283817
H      -1.50906363     -0.54316058      1.70108504
H       1.31560989      3.92493337     -0.08243804
