43
CC(=O)OC1C(C2COC(C)(C)O2)OC2OC(C)(C)OC21
C       0.25622831      3.86298641     -0.71705026
C       0.26999848      2.46641829     -1.25604562
O       0.31162948      2.17850290     -2.44420264
O       0.22266610      1.56956350     -0.23659206
C       0.24948493      0.19938449     -0.64365075
C       0.00652344     -0.74768535      0.53307683
C      -1.45365612     -0.94112704      0.93789271
C      -2.31029224     -1.70380342     -0.04660906
O      -3.64097999     -1.34502555      0.33156977
C      -3.52937736     -0.01797623      0.86720800
C      -4.28326339      0.04034757      2.18906785
C      -4.09204507      0.97926536     -0.13789527
O      -2.14746426      0.29946474      1.09431742
O       0.59801752     -2.01044726      0.16315563
C       1.52821449     -1.75920350     -0.90550928
O       2.83903598     -2.17265438     -0.56427277
C       3.49575528     -1.00862279     -0.05419591
C       3.78796737     -1.20422626      1.42776757
C       4.78307848     -0.79687039     -0.84299179
O       2.66086284      0.14691862     -0.21090005
C       1.61653203     -0.26603867     -1.10429511
H       0.30855621      4.57247983     -1.54777849
H       1.12374753      4.01939242     -0.07103185
H      -0.67121312      4.03796028     -0.16607107
H      -0.49206208      0.01994139     -1.43186760
H       0.54213874     -0.36544812      1.41271777
H      -1.48908356     -1.46242602      1.90398056
H      -2.16429335     -1.38809125     -1.08375181
H      -2.17900970     -2.78744141      0.01614523
H      -3.86849648     -0.68354883      2.89989550
H      -4.20115573      1.02991433      2.65057496
H      -5.34112415     -0.20872984      2.05517056
H      -3.53373084      0.93177305     -1.08004465
H      -4.01057093      2.00645656      0.23277222
H      -5.13950231      0.76143406     -0.37078602
H       1.17500429     -2.29525434     -1.79160504
H       2.85853624     -1.35916757      1.98693109
H       4.41550762     -2.08556545      1.59657592
H       4.27894588     -0.32425750      1.85631855
H       5.44837310     -1.66262394     -0.75923381
H       5.31354877      0.09974048     -0.50568347
H       4.56311195     -0.66090103     -1.90819443
H       1.89385562      0.03519187     -2.11824295
