43
COc1ccc2c3c1OC1C(O)C=CC4C(C2)N(C)CCC341
C       5.23694765     -0.44256228     -0.12986943
O       4.05302979      0.26434839     -0.47023466
C       2.87079406     -0.27271951     -0.05392970
C       2.71408906     -1.41574327      0.74725335
C       1.43489413     -1.85278129      1.16623255
C       0.28760982     -1.17469579      0.75866614
C       0.47224592     -0.08968776     -0.07422855
C       1.71721147      0.38769072     -0.43251849
O       1.62316798      1.57162328     -1.13068011
C       0.24481288      2.03452902     -0.85032271
C       0.29342819      2.98319024      0.38463288
O      -0.09216821      4.29903367     -0.02948305
C      -0.58828290      2.62400332      1.54958415
C      -1.52076995      1.66037208      1.52811281
C      -1.79857662      0.84077850      0.29457850
C      -2.23939759     -0.63676071      0.56398353
C      -1.10361034     -1.48359232      1.24438408
N      -2.76508582     -1.17314723     -0.72074820
C      -3.43129748     -2.46411177     -0.57926948
C      -1.76934762     -1.20508215     -1.79974927
C      -1.07047227      0.14995506     -1.99593978
C      -0.60175019      0.76449266     -0.65995173
H       5.23109598     -1.45276916     -0.55265051
H       5.38162582     -0.46913311      0.95518805
H       6.08490177      0.09509190     -0.56502588
H       3.57339487     -1.98092226      1.09489748
H       1.35719549     -2.71520260      1.82442875
H      -0.08062070      2.59308210     -1.73673033
H       1.32616375      3.06090952      0.74590801
H       0.07156614      4.89300085      0.72158412
H      -0.45149748      3.20024657      2.46102206
H      -2.14165136      1.49330156      2.40468806
H      -2.63196047      1.35761713     -0.20592207
H      -3.08621085     -0.60960572      1.26382052
H      -1.12578976     -1.26109049      2.31970179
H      -1.29831961     -2.55616662      1.14702425
H      -2.73606313     -3.28008954     -0.35809153
H      -3.96167035     -2.71848356     -1.50392953
H      -4.18776907     -2.42787056      0.21219468
H      -1.02199240     -1.98786500     -1.62028317
H      -2.26364846     -1.46505947     -2.74430358
H      -1.77165246      0.84389040     -2.47896303
H      -0.23456968      0.01798518     -2.69506098
