37
COc1ccc(N/N=C2\C(=O)C=Cc3ccccc32)c([N+](=O)[O-])c1
C       6.64238830      1.04337306      0.61051523
O       5.45512217      1.78861351      0.36870742
C       4.30103154      1.07820618      0.19793016
C       4.17785662     -0.30906907      0.22285889
C       2.92512273     -0.91408895      0.03249365
C       1.75614958     -0.15930907     -0.17265145
N       0.55606385     -0.86593271     -0.37184885
N      -0.63020504     -0.22973323     -0.23643054
C      -1.71752421     -0.95025492     -0.15752556
C      -1.71827341     -2.47962281     -0.16575576
O      -0.67765514     -3.11982914     -0.06175003
C      -3.01283669     -3.17658833     -0.28548376
C      -4.16535328     -2.50153078     -0.25555853
C      -4.21128811     -1.04717563     -0.10253697
C      -5.45377336     -0.40398031     -0.01293481
C      -5.52588839      0.98412606      0.12404034
C      -4.35894915      1.74250367      0.16993906
C      -3.11685885      1.11485924      0.08016131
C      -3.03974177     -0.27813144     -0.05337693
C       1.92136061      1.23102175     -0.22051807
N       0.81300538      2.11431067     -0.50145143
O       0.30935702      2.71073491      0.46407527
O       0.51818963      2.29684848     -1.69250295
C       3.16685882      1.85250501     -0.02943928
H       7.46491664      1.75487402      0.73134660
H       6.88250179      0.39760251     -0.24056148
H       6.56335591      0.46462008      1.53673016
H       5.03375807     -0.95683070      0.38488980
H       2.87040119     -2.00167251      0.05308736
H       0.59982917     -1.87283263     -0.16346639
H      -2.97535072     -4.25512040     -0.37919637
H      -5.10719983     -3.03736219     -0.33611379
H      -6.38011812     -0.97353229     -0.04974329
H      -6.49391001      1.47521129      0.19211035
H      -4.41125910      2.82410902      0.27275381
H      -2.21516764      1.72275605      0.11392601
H       3.25408377      2.93632157     -0.06671919
