32
O=C(C(=O)c1cc([N+](=O)[O-])ccc1O)c1cc([N+](=O)[O-])ccc1O
O      -0.25136248     -1.76695530      1.72341839
C      -0.59262587     -0.74655217      1.13024568
C       0.33406389      0.44270776      1.16094696
O      -0.03127123      1.45211874      1.75109222
C       1.66453691      0.36064660      0.51958538
C       2.69684782      1.14607028      1.05378430
C       3.97370211      1.08766252      0.48188617
N       5.06315405      1.89786607      1.04297097
O       4.81988898      2.56794486      2.05509140
O       6.16046901      1.85869399      0.46919428
C       4.22318043      0.25979983     -0.62168636
C       3.18700273     -0.50722730     -1.16103838
C       1.91165316     -0.45090862     -0.59467584
O       0.89504263     -1.16274950     -1.16426891
C      -1.89239139     -0.67598461      0.41595440
C      -2.27457483      0.47298008     -0.29097485
C      -3.50780017      0.49436780     -0.96270200
N      -3.90049661      1.69084645     -1.71785128
O      -3.03162992      2.55042873     -1.91967547
O      -5.07092044      1.76226658     -2.11625159
C      -4.36364060     -0.61364375     -0.93332180
C      -3.97899490     -1.75511849     -0.23104722
C      -2.75307307     -1.78620597      0.43453373
O      -2.46186522     -2.95420339      1.08722626
H       2.49684872      1.78690424      1.91239184
H       5.21242142      0.20729340     -1.07456156
H       3.39236693     -1.13127913     -2.02766474
H       1.25181508     -1.74477429     -1.86000866
H      -1.63070019      1.34945215     -0.32105084
H      -5.32184804     -0.60608027     -1.44962921
H      -4.63245947     -2.62462019     -0.20066634
H      -1.58733943     -2.86174708      1.52803460
