41
COc1cncc(-c2cccc(-c3cn4ccnc(C(N)=O)c4n3)c2)c1
C      -6.26912617      1.40417438      2.88843589
O      -4.97004751      0.90999041      2.58330204
C      -4.79751322      0.37657509      1.33858585
C      -5.74323616      0.28870689      0.32658432
N      -5.50373675     -0.25457726     -0.89035987
C      -4.25448313     -0.73373458     -1.10389284
C      -3.22013496     -0.70476080     -0.16822760
C      -1.88554122     -1.24374394     -0.46755790
C      -1.72731248     -2.54659801     -0.96523144
C      -0.46021733     -3.05522741     -1.25008497
C       0.67084303     -2.26673905     -1.04122331
C       0.55357202     -0.96241453     -0.54439763
C       1.75698807     -0.16745920     -0.34058890
C       1.83504752      1.08519055      0.24075096
N       3.16186982      1.41566732      0.20615259
C       3.84602371      2.54636241      0.61156566
C       5.17730333      2.58703960      0.42403732
N       5.91292022      1.56087329     -0.14826367
C       5.25557020      0.48039825     -0.50749553
C       6.02035306     -0.67266772     -1.13296984
N       6.88380566     -0.29978062     -2.13283300
O       5.92449797     -1.81896233     -0.72911919
C       3.82997387      0.36312614     -0.36267702
N       3.01271144     -0.60007918     -0.72336363
C      -0.72922094     -0.46513225     -0.26289104
C      -3.52424282     -0.13017808      1.07410602
H      -6.25047977      1.78230421      3.91508466
H      -7.01665696      0.60539612      2.84008784
H      -6.53794452      2.23719726      2.23050177
H      -6.75657021      0.65653373      0.44395660
H      -4.10033413     -1.15090897     -2.09657564
H      -2.59391368     -3.18613850     -1.12318393
H      -0.35051431     -4.06750866     -1.63081211
H       1.65358204     -2.67955148     -1.26644461
H       1.09427060      1.74971024      0.65969700
H       3.28023367      3.35270323      1.05894700
H       5.74732478      3.46162646      0.73044597
H       7.14175115      0.67681182     -2.21042908
H       7.54818768     -0.99790202     -2.43741557
H      -0.84690457      0.55010695      0.10821148
H      -2.76869902     -0.08642976      1.85558534
