26
Cl.N=C(N)NC(=O)Cc1c(Cl)cccc1Cl
Cl      0.68283431      0.00000000      0.00000000
N       4.69912473     -0.35147436      0.13721402
C       3.49646809      0.09933031      0.05131949
N       3.24842526      1.47970095     -0.13096141
N       2.39843742     -0.78717178      0.13873769
C       1.06379258     -0.31798104      0.04710801
O       0.88554510      0.91494941     -0.11526196
C      -0.07639347     -1.28060056      0.14422863
C      -1.33949926     -0.51645453      0.01387367
C      -1.80663069     -0.04062922     -1.19234854
Cl     -0.85392764     -0.36071578     -2.63237741
C      -2.98914941      0.66453293     -1.25314625
C      -3.76029972      0.92872701     -0.12064578
C      -3.28458034      0.44898330      1.07931674
C      -2.10226991     -0.25591761      1.13876587
Cl     -1.52509742     -0.85273152      2.67726961
H      -0.68283431      0.00000000      0.00000000
H       4.93147221     -1.35030155      0.27023800
H       3.46639113      2.21806886      0.58379659
H       2.81700889      1.85374854     -1.02379837
H       2.58132000     -1.79164314      0.27218540
H       0.00357880     -1.84071491      1.07319701
H      -0.01579683     -1.98925487     -0.71457781
H      -3.30085798      1.01046257     -2.22905061
H      -4.67618546      1.47890912     -0.18773549
H      -3.86087609      0.63817787      1.97265290
