46
CCNC(=O)c1nnc2c(-c3cc(OC)ccc3OC)cccc2c1N
C       5.57332184      3.09545934      1.23829990
C       5.10839866      1.88416514      2.02595198
N       3.90442513      1.31484110      1.46554619
C       3.91876140      0.42234389      0.40958627
O       4.95337601     -0.00331814     -0.09748372
C       2.56749134     -0.01171098     -0.07681945
N       1.53111727      0.43506031      0.66565113
N       0.25823220      0.06635303      0.32979966
C       0.00048977     -0.70893392     -0.74303753
C      -1.32580971     -1.04453480     -1.08160511
C      -2.46841185     -0.58146860     -0.26222505
C      -2.83953637      0.77965173     -0.30475645
C      -3.91417206      1.25661408      0.44460091
O      -4.36075852      2.54846233      0.48235108
C      -3.59281461      3.51312211     -0.22683888
C      -4.63477727      0.36650904      1.23836568
C      -4.28484972     -0.98506965      1.29833901
C      -3.20202583     -1.46745619      0.55758371
O      -2.78847427     -2.77670913      0.55688048
C      -3.38618376     -3.65207956      1.50378981
C      -1.58912787     -1.82409298     -2.22314798
C      -0.55452478     -2.26809975     -3.03141955
C       0.75706132     -1.94625796     -2.69852262
C       1.06520180     -1.17915480     -1.54980221
C       2.39864159     -0.85567249     -1.18082273
N       3.48773728     -1.23208438     -2.01310381
H       5.80711891      2.82805017      0.20256295
H       4.79733075      3.86784423      1.21548210
H       6.47180921      3.52413375      1.69247061
H       4.88469920      2.16751775      3.05908675
H       5.89425588      1.12167525      2.03980377
H       2.99717348      1.62851947      1.80020608
H      -2.26149948      1.44680091     -0.93732176
H      -4.04814300      4.49342086     -0.05615096
H      -2.56420203      3.55421813      0.14684871
H      -3.61585256      3.31885522     -1.30415414
H      -5.47765144      0.72965562      1.82187661
H      -4.88162608     -1.63185586      1.93212767
H      -4.44569109     -3.80963316      1.27767781
H      -2.88314424     -4.62081182      1.42650068
H      -3.24820015     -3.28667015      2.52686508
H      -2.61552003     -2.08190937     -2.47887246
H      -0.76686937     -2.86175863     -3.91680388
H       1.54562567     -2.29540293     -3.36101775
H       4.39472952     -1.05439932     -1.55903546
H       3.43286789     -2.18418888     -2.35870547
