24
Cc1cc2cccc(O)c2nc1C
C      -2.84936714      1.19491980     -0.58147434
C      -1.50159583      0.59532030     -0.31019190
C      -0.42658622      1.41628685      0.04817974
C       0.83476957      0.86436717      0.30307718
C       1.94374665      1.65366396      0.66647766
C       3.18473963      1.06280460      0.91203004
C       3.32674455     -0.31579519      0.79684777
C       2.22264525     -1.08242010      0.43714437
O       2.38618764     -2.44341842      0.32926809
C       0.97020461     -0.52861531      0.18468240
N      -0.05349976     -1.33775627     -0.15957494
C      -1.26735845     -0.78007978     -0.40197187
C      -2.36071292     -1.73837561     -0.77992998
H      -2.83672232      2.28327615     -0.45937020
H      -3.16131038      0.98286443     -1.60900755
H      -3.59227095      0.79439592      0.11550132
H      -0.57074739      2.49147885      0.12966160
H       1.84431775      2.73285082      0.75957686
H       4.03708967      1.67638876      1.19209527
H       4.28345958     -0.79394179      0.98367664
H       1.49493708     -2.76338140      0.07157329
H      -2.74600202     -1.50459488     -1.77704924
H      -1.98572539     -2.76717448     -0.79865845
H      -3.17694322     -1.69306438     -0.05256378
