31
CCCCC(=O)NNC(=O)c1ccncc1
C      -5.75242368      1.10178665     -0.60691734
C      -4.67155274      0.03274591     -0.62552578
C      -3.36095576      0.55123677     -0.03544157
C      -2.27784893     -0.52487019     -0.05576905
C      -0.96928918     -0.03041128      0.52586790
O      -0.78259267      1.10342930      0.96113962
N       0.01896229     -0.99875916      0.52964255
N       1.32766727     -0.55961871      0.81419579
C       2.33185331     -1.03712668     -0.00838267
O       2.14005420     -1.93241099     -0.82853446
C       3.66534366     -0.39097087      0.11590083
C       4.56405758     -0.52851526     -0.94337112
C       5.80508282      0.06831312     -0.82706844
N       6.19658631      0.77142420      0.25654952
C       5.31538533      0.87626275      1.27335399
C       4.04916273      0.31767033      1.25540952
H      -6.68092864      0.70947312     -1.03339057
H      -5.45092338      1.97479703     -1.19453026
H      -5.96094604      1.43109862      0.41602535
H      -5.01741923     -0.83812589     -0.05661361
H      -4.51018437     -0.29738882     -1.65832587
H      -3.02149001      1.42739289     -0.60201697
H      -3.52729310      0.88804442      0.99546925
H      -2.09355275     -0.84921233     -1.08667352
H      -2.60409798     -1.39530874      0.52539061
H      -0.03286753     -1.78761881     -0.11656524
H       1.37704782      0.37730515      1.21474366
H       4.30428838     -1.08522013     -1.83811303
H       6.54015288     -0.00517111     -1.62380801
H       5.66977404      1.43638982      2.13471786
H       3.40894736      0.42431207      2.12264105
