52
CCCCC(CC)CNCC(CC)CCCC
C       4.01788746      2.82109890     -0.89418521
C       2.81901136      2.67122315      0.02973735
C       2.70055204      1.27894187      0.65675795
C       2.46622611      0.16432802     -0.37198258
C       2.28263580     -1.25277628      0.22786433
C       3.47516425     -1.72235421      1.09384297
C       4.81132607     -1.71393909      0.36231488
C       0.97388667     -1.39517696      1.03883395
N      -0.19237730     -1.21740087      0.17415137
C      -1.43681859     -1.26344903      0.94331961
C      -2.70065729     -1.15039146      0.05137329
C      -2.83992811     -2.40044987     -0.84906553
C      -4.19734582     -2.51997715     -1.53350401
C      -2.74557444      0.15111019     -0.78250507
C      -2.60332916      1.45865678      0.00282874
C      -3.68322964      1.64752567      1.06898236
C      -3.63152300      3.04421630      1.67075407
H       4.13994130      3.86856049     -1.18193101
H       3.88996782      2.24091195     -1.81142754
H       4.93958339      2.49355396     -0.40415846
H       2.91050328      3.40589533      0.83935966
H       1.90042904      2.91638665     -0.51785731
H       3.60925235      1.07394105      1.23596292
H       1.86823774      1.30790935      1.36879643
H       1.58772342      0.42023305     -0.97952657
H       3.30769873      0.13221433     -1.07332198
H       2.21584362     -1.94604640     -0.62387195
H       3.55519060     -1.11864046      2.00614554
H       3.28357153     -2.75246272      1.42273573
H       4.74717254     -2.27055818     -0.57854437
H       5.58340898     -2.18629095      0.97804843
H       5.14194788     -0.69543829      0.14111540
H       0.93324187     -2.39528526      1.49263174
H       0.95914881     -0.66760263      1.85885256
H      -0.19417418     -1.96306222     -0.51952447
H      -1.44208658     -0.44841261      1.67819088
H      -1.48846798     -2.19926255      1.51373705
H      -3.56422013     -1.14690558      0.72892295
H      -2.05880917     -2.40669248     -1.61745688
H      -2.69299555     -3.30171842     -0.23815781
H      -4.27457470     -3.49177162     -2.03346360
H      -4.33570882     -1.74274885     -2.29392726
H      -5.01333665     -2.45130092     -0.80740506
H      -3.69516390      0.19563430     -1.32654604
H      -1.95990116      0.12363088     -1.54805889
H      -1.61207584      1.52279820      0.46030831
H      -2.65817055      2.28624949     -0.71276918
H      -3.55557802      0.91289411      1.87350927
H      -4.67614103      1.48154056      0.63044229
H      -2.65695724      3.23786342      2.13059225
H      -4.40003132      3.15647123      2.44227022
H      -3.81037650      3.80632584      0.90525501
