57
CC(=O)OCC(=O)C1(O)CCC2C3CCC4=CC(=O)C=CC4(C)C3C(=O)CC21C
C       6.75065114     -0.21315520      1.85903423
C       5.31003622     -0.16076371      1.46175062
O       4.58267955     -1.13682582      1.33285034
O       4.92165869      1.12943996      1.27502857
C       3.58524866      1.27259490      0.79137039
C       3.37974328      0.58524279     -0.55907889
O       4.21516986      0.70334974     -1.45749096
C       2.10793109     -0.27371575     -0.72049767
O       1.91986300     -1.08400750      0.44253340
C       2.20499700     -1.22176184     -1.92190051
C       0.76922782     -1.69332761     -2.12070360
C      -0.11448797     -0.48409574     -1.76470135
C      -1.46234909     -0.81473416     -1.06681486
C      -1.36551013     -1.80231056      0.11713193
C      -2.68460128     -2.00639163      0.85229765
C      -3.31079495     -0.68962354      1.21556620
C      -3.60752015     -0.40392398      2.49517261
C      -4.22885302      0.87994601      2.88410621
O      -4.53158078      1.11435726      4.04741070
C      -4.48458989      1.85836943      1.80981724
C      -4.18377508      1.57561663      0.53593878
C      -3.55692917      0.27412617      0.05820570
C      -4.60686982     -0.33466286     -0.90453068
C      -2.21580688      0.50756397     -0.71414567
C      -1.27401353      1.52811164     -0.05532345
O      -1.61666585      2.69129752      0.15927147
C       0.14238775      1.10541787      0.24867528
C       0.80983658      0.53967501     -1.01550123
C       1.10033056      1.72178969     -1.98290502
H       7.33252130      0.44748858      1.21186380
H       7.12444247     -1.23071320      1.72926304
H       6.86113349      0.08113750      2.90478130
H       3.38842037      2.33895108      0.65098329
H       2.88714007      0.91109457      1.55098717
H       2.76279211     -1.55316209      0.62300678
H       2.86751025     -2.07405731     -1.73131111
H       2.56204276     -0.71369739     -2.82521314
H       0.59922879     -2.02504499     -3.15041115
H       0.58952816     -2.55594182     -1.47699031
H      -0.40052062     -0.03275383     -2.72662174
H      -2.06584504     -1.33271274     -1.82524826
H      -0.60847353     -1.49527883      0.84178306
H      -1.04886876     -2.78449587     -0.24584946
H      -3.37495683     -2.58119622      0.22422534
H      -2.50652454     -2.62525638      1.73971187
H      -3.42163864     -1.09088415      3.31005058
H      -4.91755173      2.80433956      2.10911265
H      -4.37933260      2.33925535     -0.21523544
H      -4.27650124     -1.27303858     -1.36122537
H      -5.55270560     -0.54123317     -0.38833893
H      -4.83279052      0.35424693     -1.72846110
H      -2.45885508      0.98260475     -1.67822956
H       0.69300484      1.98044787      0.61289646
H       0.11079738      0.41123674      1.08966743
H       1.72932301      2.48355910     -1.50902698
H       1.60752500      1.38920709     -2.89497705
H       0.17374111      2.21829876     -2.29367972
