14
CC(O)CC=O
C      -1.33670954      0.61536320     -0.06228867
C      -0.43519757     -0.59183043     -0.28574399
O      -0.40530557     -1.39202357      0.89385382
C       0.99075587     -0.22093802     -0.67355103
C       1.65126792      0.61589422      0.38813524
O       2.12757329      1.72561304      0.16454077
H      -1.01818851      1.19918099      0.80779305
H      -2.36149617      0.28836464      0.14551784
H      -1.35354367      1.26717901     -0.94091117
H      -0.85935419     -1.21006028     -1.08540790
H      -1.32026299     -1.66555038      1.08699615
H       1.60088137     -1.12368080     -0.78841496
H       1.00418003      0.32936433     -1.62022610
H       1.71539973      0.16312405      1.39258778
