30
Cc1cccc(C)c1NC(=O)C(C)N
C      -1.44637306      1.60854995     -1.82756457
C      -1.83399653      0.39871168     -1.02075278
C      -3.10236718     -0.15111705     -1.29081761
C      -3.60955725     -1.20128542     -0.53423422
C      -2.85835773     -1.71838152      0.51297069
C      -1.57776055     -1.21376363      0.79412505
C      -0.80886425     -1.83857586      1.93017025
C      -1.03859082     -0.17301704     -0.00458517
N       0.26546553      0.27155510      0.30993561
C       1.26908571      0.63392753     -0.57764215
O       1.20155328      0.66418539     -1.80040782
C       2.55842258      1.00942579      0.19255453
C       3.77346737      1.07070742     -0.72386938
N       2.77805544      0.03177615      1.28954201
H      -0.78660287      2.27737712     -1.26753722
H      -0.97690264      1.30873994     -2.76852572
H      -2.33302642      2.20592895     -2.07161646
H      -3.71511362      0.26231471     -2.08993699
H      -4.59496348     -1.60387562     -0.75205203
H      -3.27481960     -2.52934400      1.10641308
H      -0.60040152     -1.09230933      2.70352484
H      -1.37314035     -2.64940983      2.40348298
H       0.13049288     -2.26632091      1.56503698
H       0.66634726     -0.02692373      1.19615588
H       2.38995232      1.99730279      0.63716401
H       3.95290092      0.10839404     -1.21661730
H       4.67568098      1.34289011     -0.16567222
H       3.62870162      1.81988945     -1.50993579
H       3.02989646     -0.86533333      0.86582565
H       3.61081552      0.31798114      1.80776509
