60
CN(C)c1ccc(O)c2c1CC1CC3C(N(C)C)C(O)=C(C(N)=O)C(=O)C3(O)C(O)=C1C2=O
C       4.55977376     -1.30151480     -2.09660459
N       4.17029393     -1.83042221     -0.78423305
C       4.85569695     -3.07231203     -0.41721829
C       4.20584249     -0.82036825      0.20186350
C       5.39567669     -0.47109604      0.86328074
C       5.42461938      0.55564562      1.80697916
C       4.26438118      1.25997087      2.09666041
O       4.38503820      2.26843271      3.01457659
C       3.06014925      0.93336585      1.45970847
C       3.01970993     -0.11605453      0.51482696
C       1.71542636     -0.45675612     -0.18140689
C       0.51224646     -0.18374310      0.73186667
C      -0.81701967     -0.60477654      0.06746202
C      -1.51288829      0.55077439     -0.68617971
C      -2.85075835      0.19532949     -1.40547509
N      -2.65506530     -1.03703270     -2.21175344
C      -3.22747813     -0.90304500     -3.55416387
C      -3.13736411     -2.27443287     -1.59525407
C      -4.09821203      0.27263126     -0.51803490
O      -5.25984027     -0.16680221     -1.15389127
C      -4.10648102      0.76688866      0.74121604
C      -5.37663856      0.76695146      1.52564266
N      -5.32488547      1.24041951      2.79534449
O      -6.43366268      0.35337380      1.05301205
C      -2.83667559      1.32393130      1.29644831
O      -2.70765410      1.45228496      2.51676533
C      -1.74611299      1.72586680      0.27781332
O      -2.18712130      2.86573557     -0.46481973
C      -0.46929964      2.11602079      0.99889916
O      -0.41571961      3.45055129      1.38426573
C       0.55270328      1.25559948      1.16439452
C       1.83667694      1.72147184      1.75602495
O       1.89063811      2.74086440      2.44311496
H       3.94464500     -0.43897828     -2.37742987
H       4.40903560     -2.06785192     -2.86491998
H       5.61479198     -1.00405400     -2.11536048
H       4.55165090     -3.41011360      0.58010366
H       4.57851245     -3.86314058     -1.12304280
H       5.94597713     -2.96884860     -0.44532274
H       6.32643764     -0.98267772      0.63440877
H       6.35608727      0.81570941      2.30267783
H       3.52015831      2.72996049      3.07926825
H       1.69915399     -1.51862718     -0.45359828
H       1.64868874      0.12676074     -1.10844044
H       0.62562138     -0.80863222      1.63043218
H      -1.48608677     -0.98721435      0.84908785
H      -0.62333004     -1.44768208     -0.60480644
H      -0.82260438      0.88065318     -1.47901426
H      -2.99525764      1.02317344     -2.11791124
H      -4.31388202     -0.76740191     -3.53851445
H      -2.77913272     -0.05398582     -4.08232327
H      -3.00295014     -1.79041693     -4.15721719
H      -2.81510734     -2.37217125     -0.55469304
H      -2.71773097     -3.13586976     -2.12789489
H      -4.22723615     -2.37557493     -1.62347766
H      -6.02350471     -0.08523178     -0.53760852
H      -4.44203330      1.50169382      3.23261017
H      -6.15735273      1.20754433      3.36701635
H      -1.89075704      3.64104695      0.05723866
H       0.39020978      3.57417687      1.93760067
