35
Cl.O=C(O)[C@@H]1C[C@@H](C2CCCCC2)CN1
Cl      0.68283431      0.00000000      0.00000000
O       4.52376085     -0.65910508     -1.53735486
C       3.70387284     -0.14315776     -0.66609875
O       3.91545676      1.17069459     -0.33028611
C       2.68498600     -1.02451660     -0.12516949
C       1.34238985     -1.00172998     -0.65412368
C       0.82627872      0.31893216     -0.09753965
C      -0.61343629      0.52093342      0.05788689
C      -1.36916014      0.87401374     -1.18551229
C      -2.76547382      0.36292859     -1.10764246
C      -3.34972257      0.45739743      0.28087384
C      -2.55727651     -0.43245648      1.21077013
C      -1.25759336     -0.84292082      0.59313942
C       1.60622962      0.54011731      1.10866666
N       2.54894139     -0.63281622      1.30705874
H      -0.68283431      0.00000000      0.00000000
H       3.92436465      1.99539329     -0.73738496
H       3.10681265     -2.04034308     -0.09488123
H       1.24427721     -1.17073384     -1.75280049
H       0.77305898     -1.86910746     -0.13785632
H       1.18150859      1.04984846     -0.95860797
H      -0.79484040      1.22714828      0.83438740
H      -0.85023014      0.61260009     -2.09343245
H      -1.46273063      2.00910197     -1.17018421
H      -3.38421706      1.02551695     -1.78498574
H      -2.86764617     -0.66979605     -1.52675264
H      -3.29202114      1.51276083      0.62084767
H      -4.40403175      0.13888696      0.22384112
H      -3.17283478     -1.31133288      1.49793638
H      -2.30663004      0.12119727      2.15844841
H      -1.42503744     -1.55478089     -0.24259061
H      -0.59312330     -1.28490822      1.31237965
H       2.16908706      1.49524385      1.05509671
H       0.97768818      0.58063774      2.01639041
H       1.93729221     -1.37564760      1.70032161
