13
NC(=O)OCC(Cl)(Cl)Cl
N       2.61734176      0.02631907     -0.24864091
C       1.43739832     -0.62389800     -0.17754773
O       1.31137371     -1.82712825     -0.32796790
O       0.44262562      0.25105761      0.08072782
C      -0.86095150     -0.35845733      0.17443762
C      -1.94834433      0.68490455      0.46887736
Cl     -3.54505283     -0.12539681      0.57477724
Cl     -1.63020777      1.51326615      2.02609423
Cl     -2.02236730      1.91205711     -0.83532176
H       3.45748867     -0.49980371     -0.43710968
H       2.65811471      1.02489810     -0.11506008
H      -0.83889821     -1.11074606      0.97417967
H      -1.07852084     -0.86707244     -0.77423844
