27
CC(=O)C(=Cc1ccccc1)CC(=O)O
C      -2.55903658     -2.58729529     -0.02769508
C      -2.55650711     -1.07941623     -0.01249748
O      -3.61477370     -0.45137012     -0.06723123
C      -1.25360282     -0.33101177      0.07839201
C      -0.10026443     -0.98933971      0.30568084
C       1.21421380     -0.34486647      0.36846010
C       1.84663467     -0.16875478      1.60312638
C       3.09795509      0.44720527      1.66749749
C       3.72161646      0.88612445      0.49991179
C       3.09673548      0.70910122     -0.73390380
C       1.84587802      0.09355688     -0.80121448
C      -1.38687092      1.16457186     -0.09492310
C      -1.65154991      1.50008552     -1.54529787
O      -1.44379157      0.79854393     -2.52301229
O      -2.11612848      2.75806154     -1.69978536
H      -2.24918913     -2.97368742      0.94647732
H      -3.57361264     -2.94286288     -0.23321686
H      -1.90807755     -2.96151963     -0.82214621
H      -0.05907927     -2.06529818      0.44906161
H       1.37047466     -0.50407695      2.52139162
H       3.58655587      0.58512988      2.62869898
H       4.69605615      1.36539102      0.55135158
H       3.58351896      1.04907988     -1.64446428
H       1.36926462     -0.04113562     -1.77059985
H      -2.21143506      1.54096136      0.52137207
H      -0.48586172      1.70310531      0.21450787
H      -2.25912291      2.83971691     -2.66573053
