27
CC(=O)COc1c(C)cccc1C
C       3.37593711     -0.80698769      1.05611930
C       2.96926438     -0.34723205     -0.31985216
O       3.81398941     -0.08003957     -1.17708415
C       1.48293653     -0.29736566     -0.62470697
O       0.80804001      0.34058610      0.45933839
C      -0.54989248      0.30294265      0.25970993
C      -1.17856231      1.35523625     -0.42611501
C      -0.40670313      2.52333507     -0.96991241
C      -2.56171897      1.28632824     -0.63846679
C      -3.30373817      0.21615482     -0.13962842
C      -2.67458554     -0.79463543      0.58629423
C      -1.29290332     -0.75352785      0.81321150
C      -0.63814281     -1.84988972      1.60331245
H       4.46278530     -0.92153681      1.09825290
H       3.07174072     -0.06758894      1.80060142
H       2.91407402     -1.77386519      1.27118250
H       1.13862205     -1.32814836     -0.76769451
H       1.34477903      0.27030916     -1.55161568
H       0.42335657      2.79187102     -0.30860763
H      -0.01325046      2.28539066     -1.96269040
H      -1.04524858      3.40952948     -1.05270068
H      -3.07242831      2.07325039     -1.18942499
H      -4.37717518      0.17602936     -0.30730195
H      -3.27306968     -1.61294764      0.98072003
H       0.13534675     -1.44689496      2.26513585
H      -1.36488642     -2.36578118      2.24004489
H      -0.18856654     -2.58452215      0.92858416
