29
C=CC1(C)CCCC(C)(C)O1
C       2.76637612      1.64518224      0.56375353
C       2.50071137      0.48192766     -0.04925985
C       1.12210166     -0.09089363     -0.36977466
C       1.04577859     -0.22350185     -1.89729709
C       1.01490961     -1.45631497      0.33297214
C      -0.41361047     -1.97748094      0.38424119
C      -1.31163816     -0.92768455      1.01961987
C      -1.20947399      0.43030967      0.30918184
C      -1.81765297      1.51028968      1.22163883
C      -1.99645927      0.45014489     -1.00797768
O       0.14733490      0.83936796      0.11244565
H       1.97128278      2.30660633      0.89497317
H       3.78835652      1.96035029      0.74522682
H       3.34861830     -0.13022736     -0.35358795
H       0.19081524     -0.81961521     -2.22128258
H       1.93530112     -0.71598575     -2.30816106
H       0.94709596      0.75985207     -2.37182555
H       1.66329882     -2.19783109     -0.15056159
H       1.36714296     -1.36432260      1.37035094
H      -0.76766716     -2.23628574     -0.61881735
H      -0.44835076     -2.89930289      0.97621985
H      -0.99875405     -0.81606388      2.06668848
H      -2.34952335     -1.28097533      1.03858452
H      -2.86398252      1.29672801      1.46437878
H      -1.76546793      2.49716516      0.74669256
H      -1.25471561      1.59119813      2.15903063
H      -1.77178109      1.35502043     -1.58352513
H      -1.76351059     -0.40231412     -1.64824396
H      -3.07653603      0.41465738     -0.82568433
