37
CC(=O)/C=C/[C@H]1C(C)=CC[C@@H](C)C1(C)C
C       3.76758511     -1.06879381      2.10529331
C       3.87899720     -0.03279455      1.01863179
O       4.93116196      0.56773849      0.80388164
C       2.69494187      0.28366062      0.17428332
C       1.49033411     -0.29621773      0.29696008
C       0.30284516      0.03930238     -0.59103252
C      -0.16359449     -1.18812156     -1.37573340
C       0.88788832     -2.11195496     -1.93683719
C      -1.46499396     -1.41724079     -1.63023089
C      -2.57780402     -0.50205122     -1.22292621
C      -2.08962065      0.88515513     -0.76498872
C      -3.28385288      1.68202664     -0.22481900
C      -0.86066835      0.76721982      0.20175953
C      -1.24115866      0.00752631      1.49739198
C      -0.37866138      2.17775845      0.61817359
H       3.01573915     -0.76624253      2.83877954
H       3.51898762     -2.04179698      1.67374291
H       4.72979128     -1.15774437      2.61890395
H       2.88028243      1.04597633     -0.57711499
H       1.31883264     -1.06611834      1.04478657
H       0.65165773      0.74547360     -1.36116466
H       0.45966005     -2.85709655     -2.61626837
H       1.39752381     -2.65655772     -1.13591655
H       1.62940510     -1.54238253     -2.50676562
H      -1.76268374     -2.30035752     -2.19231541
H      -3.25153203     -0.37417684     -2.07957093
H      -3.16348067     -0.99145328     -0.43548847
H      -1.74606666      1.42281575     -1.66198234
H      -3.00796158      2.71344346      0.01119314
H      -3.71363412      1.22416047      0.67064052
H      -4.07830596      1.73113503     -0.97838583
H      -0.42085914      0.01643431      2.22381059
H      -1.49572139     -1.03920313      1.30593896
H      -2.09547045      0.47191108      1.99985168
H      -0.15567303      2.79338848     -0.26018879
H       0.52711549      2.13229368      1.23199603
H      -1.13100586      2.70288439      1.21571077
