49
CCN(CC)CCC(C)(O)c1ccc(OC)c2ccccc12
C      -4.02878748      1.40968262     -2.05517363
C      -3.67191135      0.15550938     -1.26135519
N      -3.23717232      0.46693322      0.12279750
C      -4.41600848      0.78839167      0.95974500
C      -4.03916118      1.53724620      2.23459023
C      -2.50027475     -0.68585850      0.69449538
C      -1.05625882     -0.83688782      0.17225184
C      -0.12474149      0.38470535      0.39786772
C      -0.09554800      0.91298209      1.84065917
O      -0.68622492      1.48025227     -0.36008683
C       1.30146516      0.08947205     -0.13343499
C       1.73667009      0.81587508     -1.26284729
C       2.99963067      0.64123187     -1.82038543
C       3.88556546     -0.27525643     -1.26827035
O       5.15037328     -0.50176870     -1.76279478
C       5.57984868      0.28002348     -2.86940563
C       3.50003987     -1.03936202     -0.14032397
C       4.39653953     -1.97869057      0.42203410
C       4.06246834     -2.75648525      1.52570685
C       2.81304419     -2.61378583      2.09545208
C       1.90771987     -1.69229516      1.56072433
C       2.20441506     -0.87147119      0.43976638
H      -4.92309788      1.90732827     -1.67087951
H      -3.20310228      2.12892447     -2.04716789
H      -4.22745711      1.14313117     -3.09873300
H      -2.86193701     -0.32989668     -1.81546360
H      -4.51499865     -0.54691592     -1.26233373
H      -5.10271704      1.44674394      0.41764430
H      -4.98410758     -0.11745062      1.20675771
H      -4.94617836      1.85533564      2.75964008
H      -3.46291325      0.91796560      2.92720639
H      -3.45580451      2.43503431      2.00418858
H      -2.43248979     -0.59961895      1.78402211
H      -3.05067443     -1.61752349      0.50590115
H      -1.08367880     -1.06386095     -0.90098223
H      -0.64751605     -1.73624042      0.64163902
H       0.66926801      1.69185496      1.95053828
H       0.10055789      0.14536114      2.58983982
H      -1.04401394      1.39090012      2.10807408
H      -1.65157638      1.47092980     -0.18056642
H       1.08350047      1.54977040     -1.73317410
H       3.25191288      1.24335883     -2.68597344
H       6.60529987     -0.01728114     -3.10940395
H       5.59377787      1.34609470     -2.61988848
H       4.96331179      0.08531386     -3.75302536
H       5.38704603     -2.11227485     -0.01078524
H       4.77734845     -3.46729190      1.92951459
H       2.53304158     -3.21560359      2.95578809
H       0.94550681     -1.64453249      2.05527186
