38
CCSc1nc(NC(C)C)nc(NC(C)C)n1
C      -0.87007942      3.79494092     -1.94491198
C      -1.63781813      3.86527140     -0.63554434
S      -2.66816288      2.38774988     -0.36977809
C      -1.41392427      1.17013500     -0.03886381
N      -1.66171463     -0.05684952     -0.47678692
C      -0.72331154     -0.94706697     -0.20554077
N      -0.85892897     -2.26207703     -0.62176428
C      -2.20868280     -2.80276116     -0.72053400
C      -2.78774226     -3.07810412      0.66726242
C      -2.14021106     -4.10081191     -1.52629083
N       0.39143841     -0.67297606      0.45598834
C       0.54362990      0.58152988      0.85812234
N       1.67394136      0.95937971      1.56518793
C       2.91974413      0.26452787      1.26796328
C       3.91371627      0.57479155      2.38796664
C       3.48746931      0.71860563     -0.07692317
N      -0.33230868      1.54569221      0.63359427
H      -0.30955082      4.72367974     -2.09543901
H      -0.14811746      2.97231869     -1.95383810
H      -1.54491759      3.67490219     -2.79915449
H      -0.95911153      4.02262854      0.20850662
H      -2.31141683      4.72823264     -0.66519459
H      -0.19649788     -2.81657398     -0.09048096
H      -2.86959115     -2.11628952     -1.26421877
H      -3.78261526     -3.52935003      0.59036501
H      -2.14791185     -3.76057841      1.23799585
H      -2.88582175     -2.15502080      1.24825360
H      -1.49585649     -4.84129192     -1.03885198
H      -3.13618737     -4.54038388     -1.64418778
H      -1.73201182     -3.91528559     -2.52603786
H       1.71812780      1.97213092      1.55820789
H       2.77171055     -0.82244629      1.25519802
H       4.86542309      0.06012976      2.21924712
H       4.11490603      1.64979930      2.45853499
H       3.51995834      0.24843306      3.35697498
H       3.64467158      1.80293498     -0.09766266
H       4.44782274      0.23193458     -0.27732098
H       2.80993292      0.46811872     -0.90004394
