33
CC(C)c1nnc(NS(=O)(=O)c2ccc(N)cc2)s1
C      -5.21023363      1.46036924     -0.62458662
C      -4.55287817      0.56822423      0.42882670
C      -5.51919983     -0.52346942      0.88933434
C      -3.29026601     -0.04043451     -0.11212585
N      -3.22498757     -0.85074160     -1.15116985
N      -1.93033281     -1.24769556     -1.42203168
C      -1.07215954     -0.69001953     -0.60320186
N       0.33839263     -1.03411379     -0.68767482
S       1.21033165      0.18779706     -1.46732269
O       1.38721838     -0.24270451     -2.83734680
O       0.68861671      1.49518721     -1.13594419
C       2.77746550      0.03296672     -0.64264131
C       3.85280744     -0.58058135     -1.28653607
C       5.07757712     -0.68828791     -0.62206672
C       5.25041854     -0.14602244      0.65603140
N       6.44031749     -0.36680154      1.35767129
C       4.14875418      0.42367859      1.30295775
C       2.91826374      0.53870837      0.65148454
S      -1.76462264      0.27393170      0.62263504
H      -6.11218342      1.93460465     -0.22314642
H      -4.52743844      2.25497541     -0.94586495
H      -5.49733505      0.88955543     -1.51508225
H      -4.31975827      1.19582097      1.29862367
H      -6.42629139     -0.08330789      1.31713795
H      -5.81909545     -1.17374996      0.05961832
H      -5.05854863     -1.15584176      1.65660601
H       0.39781148     -1.86028807     -1.28651736
H       3.75084591     -0.98505138     -2.29080741
H       5.90232581     -1.19775401     -1.11464740
H       7.25520195     -0.48265668      0.76292040
H       6.60605172      0.29596022      2.10892311
H       4.24286272      0.78806515      2.32297822
H       2.08006789      1.00967700      1.15967286
