33
CCCCCCC[C@H]1CCC(=O)O1
C      -5.74574047      0.05315296      0.37455366
C      -4.40488521      0.67479207      0.01793669
C      -3.24962869     -0.28533051      0.30034215
C      -1.90273573      0.34377305     -0.05971701
C      -0.74653559     -0.61698251      0.22294415
C       0.60068006      0.01228589     -0.13743028
C       1.75487458     -0.94887908      0.14658799
C       3.11347098     -0.38105511     -0.25913302
C       3.53815287      0.84209674      0.52460073
C       5.04278488      0.77521169      0.42967049
C       5.28238558     -0.70298226      0.36889396
O       6.34974800     -1.25688845      0.57274830
O       4.13277759     -1.35022910      0.01471202
H      -6.55748080      0.75668786      0.16472579
H      -5.78752174     -0.20666428      1.43713779
H      -5.92446368     -0.85562206     -0.20898877
H      -4.27173530      1.59761273      0.59445891
H      -4.40792033      0.95223454     -1.04259182
H      -3.38983360     -1.20826977     -0.27550122
H      -3.25364501     -0.56291460      1.36147460
H      -1.76271138      1.26661724      0.51626901
H      -1.89876192      0.62111470     -1.12088053
H      -0.75011438     -0.89409477      1.28417628
H      -0.88697911     -1.53982043     -0.35293398
H       0.60510775      0.28698153     -1.19917620
H       0.73348419      0.93626456      0.43726203
H       1.76858474     -1.21883877      1.21054392
H       1.59421328     -1.89243755     -0.39090745
H       3.12771296     -0.18227796     -1.33824740
H       3.12566635      1.77395705      0.12780520
H       3.23596430      0.75643745      1.57593410
H       5.52088219      1.21778609      1.30632278
H       5.41420265      1.23628105     -0.48988907
