18
Cc1cc(N)nc(C)n1
C       2.46310025     -1.10358405      0.17448503
C       1.12451497     -0.44117086      0.05373996
C       1.03515905      0.92800550     -0.08955221
C      -0.23227646      1.45482794     -0.19363094
N      -0.41627032      2.82731640     -0.35834439
N      -1.33640634      0.70199468     -0.17808197
C      -1.15884467     -0.62504606     -0.04616702
C      -2.38210061     -1.48527124      0.00496830
N       0.03467424     -1.23226456      0.08696441
H       3.06200692     -0.91261529     -0.72143690
H       2.99604934     -0.72316909      1.05147197
H       2.35344279     -2.18713359      0.28637371
H       1.91396659      1.55682811     -0.12957011
H      -1.41987201      2.99356554     -0.37338394
H       0.04038827      3.35785578      0.37416882
H      -2.16924358     -2.48188548     -0.39366863
H      -3.18845213     -1.04424637     -0.58896279
H      -2.71983631     -1.58400737      1.04062670
