40
C=CC(C)(O)/C=C/C1=C(C)CCCC1(C)C
C       4.63637020     -0.02159903      0.56842007
C       3.51787612     -0.74247649      0.39414836
C       2.44803729     -1.03934654      1.42425667
C       2.40677614     -2.54661914      1.69026357
O       2.77735511     -0.40093143      2.65633332
C       1.07087281     -0.54336781      1.05125034
C       0.70090632      0.14358865     -0.04407781
C      -0.67569285      0.55695415     -0.29810298
C      -1.28610796      1.49847448      0.46286577
C      -0.61693363      2.28015638      1.56914058
C      -2.73519044      1.88856253      0.26783685
C      -3.52573674      0.94286505     -0.62686242
C      -2.70661536      0.56255567     -1.84987399
C      -1.38227637     -0.15454626     -1.47254248
C      -0.51433817     -0.17879453     -2.75220634
C      -1.69036089     -1.61495407     -1.07016504
H       5.34136462      0.11386312     -0.24607883
H       4.88714629      0.43039236      1.52290235
H       3.35565161     -1.18818965     -0.58655422
H       1.69280819     -2.78907988      2.48710733
H       3.38201416     -2.91082384      2.03611309
H       2.12616840     -3.11357501      0.79521174
H       2.68858346      0.55316658      2.49254565
H       0.30141133     -0.78131261      1.78652112
H       1.42121116      0.40236692     -0.81554386
H      -0.99752220      1.95367170      2.54240932
H      -0.83228681      3.34854491      1.45703179
H       0.47182826      2.18409185      1.57785746
H      -2.76385851      2.89826749     -0.16137672
H      -3.23897312      1.94135536      1.24077325
H      -4.45896894      1.42713030     -0.93728800
H      -3.81226185      0.04680681     -0.06457858
H      -3.31157894     -0.07296417     -2.50910830
H      -2.48875320      1.47644792     -2.42058168
H       0.38209610     -0.79713621     -2.63044684
H      -1.07451731     -0.59473905     -3.59809548
H      -0.19087516      0.83066869     -3.03177632
H      -2.27424720     -2.12378388     -1.84591596
H      -2.25954739     -1.66973514     -0.13524470
H      -0.77183453     -2.19595616     -0.92656807
