34
NC(=O)N1c2ccccc2C(O)C(O)c2ccccc21
N       1.97623664      2.37451804     -1.45800436
C       0.66306017      2.28155177     -1.08749103
O      -0.08114206      3.19757988     -1.43009664
N       0.29424440      1.10269319     -0.42041067
C      -1.04750649      0.91236627      0.08132066
C      -1.74744027      2.03829548      0.56830511
C      -3.01882299      1.93874341      1.13834508
C      -3.62946258      0.70186112      1.24581198
C      -2.97156547     -0.42521262      0.76488718
C      -1.69053359     -0.34551213      0.16004002
C      -1.15928031     -1.65413760     -0.39686178
O      -2.10662436     -2.19907421     -1.34812039
C       0.20113946     -1.64594798     -1.11602204
O       0.49398564     -2.97362215     -1.58237048
C       1.27109710     -1.14158604     -0.19000367
C       2.25876025     -1.98023301      0.35025705
C       3.23627644     -1.47028423      1.20484166
C       3.23880586     -0.11752309      1.52989306
C       2.26316139      0.72551374      0.99865486
C       1.27162798      0.22089773      0.14155850
H       2.16030707      3.15104991     -2.08009609
H       2.45512884      1.51580993     -1.69328242
H      -1.29303856      3.02722844      0.55431727
H      -3.51632232      2.83117344      1.50938179
H      -4.61371112      0.61259339      1.69768447
H      -3.47144440     -1.39109092      0.84729140
H      -1.11348081     -2.38020694      0.42628956
H      -2.66122562     -1.46044477     -1.65957344
H       0.16203596     -1.02775868     -2.02169226
H      -0.36109614     -3.30748001     -1.92154674
H       2.27320567     -3.04044406      0.10264387
H       3.99497589     -2.13183140      1.61584065
H       3.99765949      0.28147305      2.19804064
H       2.27098885      1.77904106      1.27016720
