57
C[C@H]1C[C@H]2[C@@H]3CCC4=CC(=O)C=C[C@]4(C)[C@@]3(F)[C@@H](O)C[C@]2(C)[C@@]1(O)C(=O)CO
C      -3.94258506     -2.35015397      0.34099325
C      -2.87986582     -1.44523717      0.95133351
C      -1.46240012     -2.00081259      0.66183980
C      -0.59698386     -0.75073218      0.57374999
C       0.83330267     -0.88628002      0.02679902
C       1.62607417     -1.92616101      0.84123521
C       3.08355296     -2.01855458      0.40264066
C       3.73443349     -0.65991936      0.43814853
C       4.82116926     -0.44632053      1.20137643
C       5.45017854      0.88538930      1.30939032
O       6.45197844      1.06411485      1.99053817
C       4.82342588      1.99140107      0.56225411
C       3.74169353      1.78384942     -0.20022887
C       3.04354070      0.43741235     -0.39345690
C       3.22322602      0.07760393     -1.88662955
C       1.53108388      0.51395815      0.07241086
F       1.55812625      0.87396086      1.41260119
C       0.66903895      1.61831404     -0.61533122
O       0.71759933      1.54292042     -2.03643764
C      -0.80647606      1.61788678     -0.15164864
C      -1.48059453      0.22909972     -0.23378291
C      -1.65577288     -0.19037479     -1.71883621
C      -2.84652883      0.07262784      0.53007708
O      -2.77426091      0.82741106      1.75515300
C      -4.05008086      0.62257507     -0.27680497
O      -4.69421151     -0.04793503     -1.08899310
C      -4.42341610      2.08893184     -0.06554159
O      -5.31586873      2.54813942     -1.07361600
H      -3.85563898     -2.41585688     -0.74725644
H      -4.94802329     -2.00148063      0.59673759
H      -3.84371571     -3.36807025      0.73492683
H      -3.02053613     -1.50273048      2.04002687
H      -1.13770158     -2.66740580      1.46809735
H      -1.42846982     -2.57461720     -0.27114205
H      -0.50155200     -0.37127359      1.60410110
H       0.79512559     -1.24533300     -1.00637009
H       1.16783640     -2.91613918      0.73214735
H       1.58313663     -1.67531899      1.90938663
H       3.14644916     -2.43356861     -0.60987660
H       3.60555802     -2.72797294      1.05640090
H       5.28756403     -1.22599715      1.79264793
H       5.29146804      2.96331335      0.65887359
H       3.34097779      2.63401485     -0.74781162
H       4.26348254     -0.19992936     -2.10336574
H       2.99137488      0.91817123     -2.54934668
H       2.59800988     -0.76498016     -2.19615208
H       1.07738753      2.59778679     -0.34038846
H       0.22018318      2.30109819     -2.39262610
H      -1.37522648      2.33666521     -0.75264807
H      -0.82431239      1.98397100      0.88201276
H      -2.16822574      0.59671597     -2.28406135
H      -2.24818298     -1.10256979     -1.83113513
H      -0.71010685     -0.38195079     -2.22872419
H      -3.46780616      0.50710769      2.36027610
H      -4.91798062      2.19319454      0.90380017
H      -3.53300470      2.71791843     -0.09757892
H      -5.76744909      1.75212267     -1.42139552
