29
CCC(CC)(CC)NC(N)=O
C      -1.22328154     -1.64458219     -1.58251990
C      -1.11514560     -1.13494384     -0.14716527
C      -0.14303380      0.06777492      0.05910599
C      -0.51076542      1.25723145     -0.88359202
C      -1.94462105      1.76925457     -0.78989432
C      -0.21690949      0.54117333      1.54375006
C       0.23311843     -0.48115521      2.58398406
N       1.22311362     -0.40912568     -0.26298541
C       2.34884768      0.35907565     -0.20188561
N       3.46170250     -0.36800401     -0.48595378
O       2.42076435      1.54668885      0.06502518
H      -1.86677557     -2.53022333     -1.61277791
H      -1.66513809     -0.89845588     -2.24824465
H      -0.24575204     -1.93076533     -1.98198477
H      -0.78605154     -1.98330524      0.46590177
H      -2.11916267     -0.87480721      0.20906825
H       0.14752172      2.11026221     -0.68110024
H      -0.30778077      0.97826354     -1.92549189
H      -2.17563946      2.14369701      0.21095759
H      -2.08450039      2.60046085     -1.48940244
H      -2.67424438      0.99857791     -1.05109007
H       0.39143304      1.44399586      1.67683186
H      -1.24582229      0.82964147      1.78960533
H       0.18707393     -0.03500554      3.58318336
H       1.26382915     -0.80569330      2.41548674
H      -0.41413269     -1.36232585      2.59161146
H       1.41347090     -1.37698966     -0.04508590
H       3.36211834     -1.02721232     -1.24442295
H       4.28576314      0.21649696     -0.56091453
