23
Cc1cc(C)c(C)c(C)n1
C       3.31429446     -0.26293354     -0.20639291
C       1.82486006     -0.12694379     -0.10948082
C       1.01531709     -1.25322948     -0.15975202
C      -0.37340529     -1.10736047     -0.06992995
C      -1.23887885     -2.33543717     -0.13409700
C      -0.91395033      0.18248121      0.09822178
C      -2.40029833      0.39834736      0.18589832
C      -0.02172261      1.26694209      0.11171843
C      -0.49722466      2.68640796      0.23844985
N       1.32397871      1.11937117      0.01879508
H       3.59096025     -0.71860060     -1.16221148
H       3.69151375     -0.88466746      0.61150234
H       3.80042700      0.71590189     -0.14200842
H       1.46422850     -2.23559182     -0.27248785
H      -2.03158834     -2.20899597     -0.87852217
H      -0.66123947     -3.21871496     -0.42741248
H      -1.68340172     -2.53584304      0.84576556
H      -2.81500695      0.54254357     -0.81656078
H      -2.90488992     -0.44990069      0.65834811
H      -2.64853092      1.26906867      0.80011189
H       0.33724439      3.38710684      0.12704820
H      -0.94301591      2.85175340      1.22393006
H      -1.22967094      2.91829483     -0.54093373
