53
CCCCCCCC[Sn](Cl)(Cl)CCCCCCCC
C       6.04504601      0.55721771     -2.00390392
C       5.60657955     -0.15669686     -0.69039459
C       6.32646995      0.46768853      0.42809287
C       6.06583257     -0.05559466      1.77325802
C       4.76334444      0.16664008      2.40506883
C       3.56811543     -0.31561559      1.68835542
C       2.32476509     -0.11400428      2.61700954
C       1.15079587     -0.62239824      1.83141018
Sn      0.87808188      0.43188628      0.00921066
Cl      1.84850623      2.54865038      0.12371854
Cl      1.81485336     -0.76372103     -1.81306653
C      -1.25302700      0.57184407     -0.39324913
C      -1.86130475     -0.73258542      0.05604085
C      -3.34189477     -0.70847211     -0.16981585
C      -3.68220914     -0.52400092     -1.60320240
C      -5.17234024     -0.53898093     -1.80881470
C      -5.85555355      0.56032062     -1.04513727
C      -7.34478652      0.45796937     -1.34044760
C      -8.05366229      1.55067559     -0.58580229
H       5.25918539      0.30179503     -2.75281594
H       6.00396022      1.65346098     -1.83710224
H       7.04693476      0.19485750     -2.29858161
H       6.00611053     -1.22803447     -0.76560046
H       4.53700151     -0.21590979     -0.67973159
H       7.43654068      0.31425316      0.23123672
H       6.15197970      1.59623677      0.38581150
H       6.84710365      0.35462829      2.51768835
H       6.34662307     -1.17544668      1.79813134
H       4.62837853      1.29120381      2.62002037
H       4.72776589     -0.30395345      3.45465821
H       3.37014415      0.45591958      0.86133949
H       3.57924922     -1.29308355      1.23855559
H       2.49781432     -0.73056053      3.49613938
H       2.19439917      0.96297278      2.81030813
H       0.20931339     -0.61156953      2.39734316
H       1.36867779     -1.69407618      1.58870913
H      -1.38445427      0.69299791     -1.48816441
H      -1.60652460      1.43342470      0.17879129
H      -1.36822076     -1.59426337     -0.43414760
H      -1.69463766     -0.89771961      1.15902770
H      -3.77472097      0.14670043      0.43042556
H      -3.79395729     -1.67155943      0.18568556
H      -3.19701991     -1.32738325     -2.21449552
H      -3.25911337      0.43023471     -2.02815027
H      -5.34466827     -0.42329737     -2.90227031
H      -5.61860831     -1.50817566     -1.52672116
H      -5.44246261      1.55715049     -1.29597342
H      -5.70277116      0.42760703      0.05814044
H      -7.53302304      0.49222425     -2.42376818
H      -7.64824209     -0.56173311     -0.98228161
H      -8.22967222      2.39188016     -1.28509779
H      -9.03216775      1.16392174     -0.19613116
H      -7.40852982      1.91966177      0.22069071
