29
CCOC(=O)Oc1ccc(NC(C)=O)cc1
C      -6.26444200     -0.10073693      0.12890713
C      -4.88285403     -0.62498614      0.46919915
O      -3.91630995      0.30440854     -0.02980858
C      -2.62601788     -0.05492596      0.20938683
O      -2.27509312     -1.06631665      0.80105531
O      -1.80773169      0.92345400     -0.32964862
C      -0.44413634      0.67648094     -0.16323151
C       0.30505049      0.33129425     -1.28324272
C       1.68196362      0.12420881     -1.15412711
C       2.30918246      0.27472039      0.08622009
N       3.68941569      0.07907841      0.29999900
C       4.64732745     -0.26426931     -0.63695483
C       6.02154409     -0.38971332     -0.02693130
O       4.47893010     -0.43440323     -1.83895024
C       1.53727503      0.64302782      1.19918598
C       0.16173294      0.85408941      1.07687976
H      -6.37606834      0.01722953     -0.95402183
H      -6.42266927      0.88681182      0.57480338
H      -7.04013257     -0.78069673      0.49201958
H      -4.78103986     -0.71785451      1.55633797
H      -4.73359383     -1.60364837     -0.00071658
H      -0.17001146      0.21980348     -2.25352369
H       2.23682589     -0.15414975     -2.04463482
H       4.01130729      0.21188050      1.25019277
H       6.63953786     -1.03830236     -0.65457907
H       5.96806782     -0.83554510      0.97048998
H       6.48123676      0.60000849      0.03634111
H       1.99494666      0.77291788      2.17629893
H      -0.42424379      1.14613410      1.94292050
