24
CC(=O)CC(=O)Nc1ccccc1Cl
C      -3.68687366      0.11109860      1.44346207
C      -2.99875020      1.08892308      0.52828012
O      -2.88966624      2.28023156      0.82281640
C      -2.41387234      0.55666659     -0.74923164
C      -1.19240285     -0.28646928     -0.49732434
O      -1.31003831     -1.47961031     -0.23636039
N      -0.01550383      0.43100463     -0.56705878
C       1.30787192     -0.04300844     -0.39293677
C       1.61824108     -1.38501692     -0.15684281
C       2.94817466     -1.79067429      0.00594753
C       3.98387473     -0.86198787     -0.06656021
C       3.69345359      0.47909487     -0.30410276
C       2.36582203      0.88418007     -0.46671658
Cl      2.05923132      2.56296739     -0.76519941
H      -4.21829354      0.65679493      2.22824929
H      -4.41493187     -0.47511222      0.87716672
H      -2.94836880     -0.54793744      1.90530020
H      -2.17462573      1.39546568     -1.41267708
H      -3.16687834     -0.04241260     -1.27243736
H      -0.08304297      1.43495953     -0.71976749
H       0.84901311     -2.14841928     -0.09396886
H       3.17071029     -2.83962848      0.19023291
H       5.01450522     -1.18378501      0.06127611
H       4.50235073      1.20267519     -0.36154688
