55
CCCCC(CC)COCOCC(CC)CCCC
C      -6.87400903     -1.54635410     -0.02951004
C      -5.56289263     -0.82923907      0.25431089
C      -5.62161296      0.63372454     -0.18521180
C      -4.37195979      1.43814811      0.19300188
C      -3.02387876      0.92008970     -0.36045940
C      -3.04194229      0.86174667     -1.90538060
C      -1.75891378      0.35216476     -2.54656631
C      -1.89285201      1.81521827      0.18504984
O      -0.64253635      1.14510928      0.05418770
C       0.43329568      1.93406529      0.54387675
O       1.68583826      1.30442433      0.29903222
C       1.82485876      0.08466561      1.02826504
C       3.19683862     -0.54622817      0.71488609
C       3.43249989     -1.82846842      1.53913072
C       3.40568309     -1.61109993      3.04637170
C       3.30908354     -0.82272520     -0.80569652
C       4.64782660     -1.39090206     -1.29505259
C       5.88714764     -0.56573011     -0.94174738
C       5.85550270      0.84710008     -1.50362477
H      -7.10711852     -1.52829412     -1.09883096
H      -6.81010760     -2.59212077      0.28692849
H      -7.70270908     -1.07826655      0.51117503
H      -5.34575990     -0.88813484      1.32695719
H      -4.75818700     -1.35340191     -0.27188525
H      -5.79987495      0.69388350     -1.26467426
H      -6.48621824      1.11448189      0.29035096
H      -4.52085938      2.47445452     -0.13769396
H      -4.31396363      1.47309544      1.28894778
H      -2.85094451     -0.09761889      0.01170247
H      -3.27170188      1.85412032     -2.31235479
H      -3.84793489      0.19488359     -2.23131050
H      -1.44161532     -0.59494709     -2.09941844
H      -0.94707436      1.07903113     -2.45385682
H      -1.91879020      0.18293272     -3.61669082
H      -1.86615655      2.76896562     -0.35568459
H      -2.05738695      2.02334490      1.24901232
H       0.31445882      2.12426408      1.61729676
H       0.45077746      2.89487038      0.01856029
H       1.74282579      0.31540218      2.09511610
H       1.02318806     -0.61154935      0.75517906
H       3.96354403      0.19242382      0.98048446
H       4.41314205     -2.24928619      1.29243021
H       2.68649572     -2.58707006      1.27296459
H       4.08734666     -0.80691482      3.34019216
H       3.71912504     -2.52527737      3.56104723
H       2.40085989     -1.36659979      3.40174593
H       2.51742851     -1.52541624     -1.09798291
H       3.10710993      0.09958179     -1.36345921
H       4.77913376     -2.40847878     -0.90962359
H       4.59410517     -1.49420473     -2.38656434
H       6.02351980     -0.52520301      0.14430325
H       6.76860651     -1.07995198     -1.34372841
H       6.80385222      1.35410824     -1.29839689
H       5.70571055      0.83527240     -2.58784193
H       5.05719581      1.44191037     -1.05013465
