42
CCCC(=O)OCCC(C)CCC=C(C)C
C       6.91379459      1.02006449     -1.10314400
C       5.84358628      0.46173568     -0.17955387
C       4.50787690      0.30350761     -0.90138621
C       3.43650398     -0.24919202      0.00899587
O       3.58113504     -0.53148171      1.18964730
O       2.27422777     -0.38387555     -0.69158300
C       1.17836617     -0.90241438      0.07846491
C      -0.03907737     -0.98312284     -0.84008688
C      -1.32601777     -1.52253795     -0.18799925
C      -1.17103611     -2.99558268      0.20749367
C      -1.81271170     -0.70863773      1.03004265
C      -2.06143734      0.78335052      0.77863077
C      -3.10513314      1.04398341     -0.27209381
C      -4.41029875      1.31770227     -0.08030153
C      -5.09318793      1.36952406      1.25856466
C      -5.31878197      1.58891642     -1.25091645
H       6.62954293      2.00739569     -1.48100311
H       7.07702484      0.35802643     -1.95962820
H       7.86257573      1.12151613     -0.56667033
H       6.17347639     -0.50797374      0.21245903
H       5.72636806      1.12840931      0.68330973
H       4.17022332      1.27689758     -1.27430256
H       4.62429420     -0.38246617     -1.74798276
H       0.98448432     -0.22809381      0.91905379
H       1.44524862     -1.89597068      0.45359181
H      -0.22611071      0.00916002     -1.26926245
H       0.21645326     -1.61041831     -1.70493844
H      -2.10986141     -1.48873102     -0.95623832
H      -0.45849107     -3.12340498      1.02857321
H      -0.82593988     -3.59397022     -0.64209292
H      -2.13162521     -3.40818501      0.53479129
H      -1.08872787     -0.80375386      1.84902851
H      -2.74327587     -1.15813276      1.40272959
H      -1.13185308      1.27896462      0.47550963
H      -2.33639719      1.26010983      1.72579877
H      -2.72677106      1.01950486     -1.29400734
H      -5.96416205      0.70533457      1.26203036
H      -4.45152400      1.05486656      2.08496141
H      -5.43595134      2.38821253      1.46693427
H      -4.78860579      1.54385967     -2.20815538
H      -5.76161307      2.58647016     -1.16295950
H      -6.12659074      0.85043302     -1.28358653
