31
CCCCCOC(=O)c1ccc(O)c(Cl)c1
C       5.76883984      0.13315337      0.58557800
C       4.33845810      0.64552276      0.64031361
C       3.35286363     -0.38540025      0.09103673
C       1.91770920      0.13306993      0.14782058
C       0.92733959     -0.88938877     -0.39839897
O      -0.38773784     -0.32378804     -0.30798888
C      -1.37448043     -1.13389951     -0.76372993
O      -1.22564739     -2.25500200     -1.22229463
C      -2.69940113     -0.46881774     -0.63225228
C      -3.83686142     -1.17223485     -1.05987442
C      -5.10474499     -0.59529799     -0.95929972
C      -5.23558797      0.68388630     -0.43164689
O      -6.49675017      1.20562438     -0.35372060
C      -4.11033275      1.39205866     -0.00339474
Cl     -4.27779022      2.97899188      0.65061879
C      -2.84130853      0.82137734     -0.10118648
H       6.45661110      0.88605823      0.98309065
H       6.06677251     -0.08926417     -0.44403478
H       5.88207388     -0.77847840      1.18092831
H       4.08318357      0.88880430      1.67828014
H       4.26686131      1.57421406      0.06227209
H       3.43136133     -1.31368988      0.66995158
H       3.61502088     -0.62833506     -0.94592150
H       1.64539964      0.38588865      1.18023993
H       1.82761311      1.06584839     -0.42293906
H       0.97048511     -1.81062093      0.19438070
H       1.15698637     -1.11470171     -1.44645154
H      -3.73919730     -2.17492483     -1.47403284
H      -5.98383130     -1.14174308     -1.29097925
H      -6.41971767      2.09787466      0.03345223
H      -1.97419005      1.38321430      0.23566036
