16
Nc1ncc2nccnc2n1
N       3.28455715      0.24760843     -0.60460757
C       1.99343774      0.04818741     -0.17034175
N       1.82025027     -0.70693652      0.91182297
C       0.54268724     -0.88426463      1.30710098
C      -0.55686498     -0.36261553      0.67129926
N      -1.82870895     -0.57206214      1.10742224
C      -2.79681967      0.00379282      0.37000645
C      -2.50185723      0.74898368     -0.75062868
N      -1.23262921      0.94754954     -1.17563826
C      -0.23976419      0.39545110     -0.46618584
N       1.01037752      0.59110768     -0.88257089
H       3.88762470     -0.49552066     -0.28182190
H       3.29648928      0.46755999     -1.59090317
H       0.41646709     -1.49194140      2.19844288
H      -3.81637022     -0.15055022      0.70403293
H      -3.27887652      1.21365045     -1.34742963
