78
CCCCCCCCCc1cccc(Nc2cccc(CCCCCCCCC)c2)c1
C     -10.31855908      1.52217906      0.42784046
C     -10.50898722      0.58914045      1.61363432
C      -9.20247927     -0.02699100      2.12024933
C      -8.54575970     -0.96674127      1.10608802
C      -7.34841900     -1.73454014      1.67684950
C      -6.19864998     -0.87428105      2.21031904
C      -5.58583632      0.04718443      1.15314661
C      -4.38302919      0.81148690      1.71674958
C      -3.79917747      1.82299884      0.72454552
C      -3.12203809      1.18649575     -0.46375037
C      -3.74074304      1.17967896     -1.71784351
C      -3.10572561      0.59148774     -2.80956602
C      -1.84553636      0.00871763     -2.65738438
C      -1.20432479     -0.00592597     -1.41505946
N       0.07889425     -0.54903008     -1.22954245
C       1.19854366     -0.61835024     -2.07879675
C       1.35230374      0.18831907     -3.21011937
C       2.47035261      0.06110669     -4.03804326
C       3.44986950     -0.88679345     -3.75126667
C       3.31751116     -1.71926126     -2.63546809
C       4.37747753     -2.74418221     -2.31580544
C       5.63911798     -2.14419146     -1.68261085
C       5.39565764     -1.60093316     -0.27009029
C       6.68090451     -1.17491908      0.44827777
C       7.33792958      0.06143477     -0.17126154
C       8.62733115      0.48809738      0.54061036
C       8.39303568      1.02519660      1.95543999
C       9.68211883      1.46308262      2.65626003
C      10.32813192      2.69069302      2.03291897
C       2.18830696     -1.57805185     -1.81251338
C      -1.85775507      0.59011136     -0.32577854
H      -9.97213803      0.98080787     -0.45728349
H     -11.26840086      2.00221875      0.17165725
H      -9.59345479      2.30892425      0.65872687
H     -10.96549900      1.15676579      2.43330425
H     -11.21662627     -0.20346248      1.34507737
H      -8.51087135      0.77798704      2.39389202
H      -9.41970033     -0.58586920      3.03868868
H      -8.23275227     -0.40887490      0.21731395
H      -9.28691006     -1.70019831      0.76461784
H      -7.69868482     -2.38495530      2.48807659
H      -6.96042023     -2.40031609      0.89584316
H      -5.42069837     -1.54741854      2.59244722
H      -6.53975111     -0.28255049      3.06750983
H      -5.27919027     -0.55178560      0.28827836
H      -6.33404865      0.76766966      0.80448427
H      -3.61081715      0.10160034      2.03714529
H      -4.70082261      1.35860098      2.61321419
H      -4.58489251      2.51100740      0.38794097
H      -3.06176837      2.44884957      1.24399676
H      -4.72188435      1.62911388     -1.85156302
H      -3.59156148      0.58171446     -3.78148021
H      -1.38033131     -0.46478149     -3.51786689
H       0.28255198     -0.80955728     -0.27174002
H       0.61935221      0.95527817     -3.44370860
H       2.57687420      0.70876629     -4.90412011
H       4.31601981     -0.97296712     -4.40310505
H       4.65313834     -3.25583696     -3.24719111
H       3.96498143     -3.52329003     -1.66244376
H       6.03766096     -1.35397536     -2.32865430
H       6.40254250     -2.93068055     -1.63326593
H       4.91272199     -2.38068447      0.33203360
H       4.70393582     -0.75130706     -0.30347046
H       6.42050511     -0.96744039      1.49194398
H       7.39223175     -2.00953013      0.45852029
H       6.62769257      0.89688651     -0.17654555
H       7.59121366     -0.14572167     -1.21698855
H       9.32557569     -0.35677177      0.57446085
H       9.09994441      1.26534685     -0.07050584
H       7.68847536      1.86491253      1.92240349
H       7.93067153      0.24672886      2.57205790
H      10.40159647      0.63609992      2.66647102
H       9.44665230      1.69081643      3.70290341
H      10.68517231      2.48794811      1.01948080
H       9.62351637      3.52717755      1.99192516
H      11.19049360      3.00420135      2.63014743
H       2.07674325     -2.23172053     -0.95003695
H      -1.36950593      0.60705412      0.64602032
