28
CNC(=O)O/N=C/C1(C)SCC(C)S1
C       5.87161621     -0.10942013     -0.46479157
N       4.48348562     -0.32366696     -0.76870838
C       3.49011979      0.36293189     -0.11826946
O       3.69341331      1.26884790      0.68010720
O       2.26668241     -0.13571045     -0.49606674
N       1.22799379      0.53936709      0.17409046
C       0.08895124      0.06546586     -0.22170540
C      -1.24216417      0.57619858      0.30758821
C      -1.09912444      1.68773647      1.34471843
S      -2.21441901      1.18845825     -1.11737110
C      -3.80686211      0.55029743     -0.54455642
C      -3.59501170     -0.85997211     -0.00965155
C      -3.42690481     -1.90956591     -1.10739313
S      -2.12419685     -0.84809542      1.07066519
H       6.11903860     -0.66107636      0.44597190
H       6.06958034      0.95461298     -0.31004532
H       6.47196697     -0.48330017     -1.29728602
H       4.19747855     -1.13843143     -1.29158640
H       0.04792467     -0.74450372     -0.97458076
H      -0.51195957      1.35450975      2.20961162
H      -2.06882636      2.03769283      1.71890253
H      -0.57206696      2.55582453      0.92944595
H      -4.53033663      0.56559175     -1.36575335
H      -4.18812181      1.21349796      0.24015138
H      -4.45982771     -1.14532169      0.59969892
H      -2.54791050     -1.73225678     -1.73603779
H      -4.30517227     -1.91613276     -1.76243710
H      -3.33534658     -2.91357942     -0.67760772
