57
CC(C)c1cc(OP(=O)(Oc2ccccc2)Oc2ccccc2)cc(-c2ccccc2)c1
C      -3.91606477     -3.50992830     -1.76756548
C      -3.09495986     -3.50832836     -0.47584006
C      -3.96536246     -3.88533873      0.72505794
C      -2.39360398     -2.17947056     -0.26240337
C      -0.99401812     -2.12715954     -0.23198723
C      -0.32838875     -0.92007288     -0.02673691
O       1.03622895     -0.99033438     -0.02135198
P       2.02334434      0.24388466      0.30063766
O       1.81128426      0.89468707      1.63665714
O       3.49070381     -0.38636778      0.07087095
C       4.04128197     -1.37923883      0.83382095
C       5.30085484     -1.82613791      0.43022613
C       5.94360329     -2.84783506      1.13006863
C       5.32622291     -3.42484186      2.23850367
C       4.07084697     -2.97487679      2.64731567
C       3.42678927     -1.94959328      1.94731091
O       1.83179827      1.21170458     -0.97526934
C       2.51069387      2.38048269     -1.17705248
C       3.51882679      2.85669519     -0.34152271
C       4.15456045      4.06714771     -0.63982476
C       3.78422531      4.79857239     -1.76762008
C       2.77706904      4.32134391     -2.60307074
C       2.14400356      3.11190056     -2.30739079
C      -1.05417787      0.25577952      0.15097453
C      -2.45852833      0.24533198      0.11899531
C      -3.22748543      1.49331764      0.29286938
C      -4.22239113      1.86245356     -0.62920529
C      -4.94870978      3.04835640     -0.47140868
C      -4.69178241      3.88781301      0.61319284
C      -3.70998894      3.54177525      1.53806072
C      -2.98362490      2.35553182      1.37755474
C      -3.11015950     -0.98477840     -0.08845439
H      -3.28800436     -3.25986727     -2.63297860
H      -4.35288655     -4.50030877     -1.94572916
H      -4.73681622     -2.78498710     -1.73066000
H      -2.33211161     -4.29062983     -0.57782339
H      -3.37630970     -3.88738996      1.64835683
H      -4.79935500     -3.18850857      0.86160921
H      -4.38932145     -4.88610793      0.59476747
H      -0.40942625     -3.03485812     -0.36749804
H       5.78460553     -1.37822447     -0.43463415
H       6.92359045     -3.19264742      0.81103237
H       5.82471728     -4.22182420      2.78614531
H       3.58946558     -3.42323228      3.51399437
H       2.45380722     -1.62015152      2.29929894
H       3.83320759      2.31776619      0.54772891
H       4.94022905      4.43906685      0.01281423
H       4.27874767      5.74152080     -1.99643973
H       2.48116577      4.89062005     -3.48411425
H       1.35725960      2.74545958     -2.96105126
H      -0.54909918      1.20577354      0.30717227
H      -4.43024944      1.22839662     -1.49214618
H      -5.70990121      3.31637261     -1.19928420
H      -5.25492507      4.81094276      0.73507309
H      -3.50572669      4.19413256      2.38490919
H      -2.22655327      2.10348724      2.11716005
H      -4.19920139     -1.00727667     -0.10112777
