26
C=CC1(C(C)C)C(=O)NC(=O)NC1=O
C       0.83470284      2.59699344     -0.32749227
C       0.29602413      1.68134340      0.49172131
C       0.07974288      0.18186286      0.23595416
C      -1.44963987     -0.15880070      0.33532189
C      -1.73746933     -1.64690974      0.07829499
C      -2.36506560      0.69482337     -0.55666430
C       0.81979916     -0.48450569      1.40593058
O       0.32453044     -0.65398482      2.52077467
N       2.12087143     -0.84506410      1.19429340
C       2.67744508     -1.08002576     -0.01966345
O       3.72404587     -1.70943875     -0.13328915
N       1.98585594     -0.65493916     -1.10647769
C       0.68002761     -0.24583400     -1.11294398
O       0.08459576     -0.18990831     -2.18804677
H       0.91744807      3.63419920     -0.01130541
H       1.18575784      2.36802577     -1.32909893
H      -0.04515944      2.03242252      1.46889731
H      -1.77552488      0.04178308      1.36648634
H      -1.13618469     -2.29068402      0.72747073
H      -1.53736091     -1.92822262     -0.96016098
H      -2.79035648     -1.87210899      0.28178619
H      -2.25634710      1.76263950     -0.34533116
H      -3.41519298      0.44030987     -0.37200925
H      -2.17779279      0.53450097     -1.62135032
H       2.59102729     -1.27585217      1.97851436
H       2.36421972     -0.93262513     -2.00161226
