53
COc1ccc(CNC(=O)C2c3ccccc3C(=O)N2CCc2ccccn2)cc1
C       3.65974835      4.67320856      0.32143123
O       3.86704245      3.40733075      0.93472663
C       3.43139256      2.31069019      0.24114086
C       2.77704234      2.32585713     -0.99078768
C       2.37647947      1.12698474     -1.59158230
C       2.62907551     -0.10341998     -0.97104820
C       2.15610665     -1.39040504     -1.59432121
N       0.83069556     -1.71719613     -1.12783766
C       0.61339672     -2.58454059     -0.07756081
O       1.48996798     -3.31355243      0.38458186
C      -0.85240923     -2.66763600      0.39453633
C      -1.60408448     -3.77273246     -0.28921486
C      -1.32161564     -5.12699544     -0.36343720
C      -2.21116948     -5.95131159     -1.06182221
C      -3.36604358     -5.42174994     -1.66653443
C      -3.64894290     -4.05776564     -1.58268100
C      -2.75085945     -3.26399881     -0.89415015
C      -2.81067736     -1.82259085     -0.63389679
O      -3.74422965     -1.10577231     -0.93813427
N      -1.64572240     -1.47689487      0.03975931
C      -1.52590985     -0.24675561      0.81827960
C      -1.65752886      1.02602940     -0.02128821
C      -1.43157375      2.24677448      0.82945293
C      -2.47803211      3.10989212      1.13958018
C      -2.21665338      4.21958177      1.93942913
C      -0.92580206      4.43603871      2.40704912
C       0.05635232      3.52809571      2.05367644
N      -0.17040376      2.44544276      1.27958185
C       3.27766259     -0.11201690      0.26962496
C       3.67780425      1.08639583      0.86579862
H       2.59205155      4.88170409      0.19624986
H       4.07080674      5.43804479      0.98744953
H       4.19193274      4.74243711     -0.63308720
H       2.54867810      3.25285972     -1.50517546
H       1.85539495      1.16473450     -2.54562093
H       2.10473715     -1.28822640     -2.68388746
H       2.85704525     -2.20376514     -1.37595753
H       0.07768391     -1.07648813     -1.34954807
H      -0.88853051     -2.79141223      1.48274993
H      -0.43195430     -5.54381955      0.10190380
H      -2.00854059     -7.01811264     -1.13743911
H      -4.04468555     -6.08300902     -2.20082450
H      -4.53821871     -3.63205898     -2.03533754
H      -2.29723149     -0.27304693      1.59761646
H      -0.54955876     -0.26430710      1.31717254
H      -2.63852905      1.08341912     -0.50438417
H      -0.91853897      1.02162492     -0.83162095
H      -3.48200480      2.92639433      0.76950352
H      -3.01596407      4.90868368      2.19656060
H      -0.69131351      5.28937062      3.03280786
H       1.08222497      3.64601292      2.39170225
H       3.46539693     -1.05294470      0.78407890
H       4.17800921      1.06491741      1.83073560
