19
NP(N)(=O)c1ccccc1
N      -2.13990315      0.51838737      1.46544731
P      -1.66270598      0.41474132     -0.09637258
N      -2.39493549     -0.97411801     -0.55751379
O      -2.15093784      1.58300707     -0.89674861
C       0.08165567      0.12572098     -0.10304793
C       0.93488569      0.96711052     -0.83137292
C       2.31337239      0.74744461     -0.84309230
C       2.85517784     -0.31746362     -0.12572974
C       2.02081654     -1.16273692      0.60307941
C       0.64280026     -0.94189597      0.61387278
H      -1.69041564      1.29848464      1.93304673
H      -3.13205818      0.71184652      1.52957824
H      -3.40030686     -0.85800357     -0.59821964
H      -2.12317847     -1.23415927     -1.49972740
H       0.51812005      1.80113320     -1.39415498
H       2.96371573      1.40724167     -1.41186372
H       3.92853206     -0.48878361     -0.13464974
H       2.44188418     -1.99376155      1.16310761
H      -0.00651882     -1.60419538      1.18436125
