22
Clc1cccc(-c2ccc(Cl)c(Cl)c2Cl)c1Cl
Cl      4.28890132      1.74396604     -0.64267419
C       3.07102620      0.58415696     -0.23606596
C       3.50509490     -0.66052641      0.22877535
C       2.57869685     -1.64247768      0.56924812
C       1.21408144     -1.38245520      0.44668024
C       0.75025334     -0.13579859     -0.01583830
C      -0.70527178      0.08416210     -0.12196431
C      -1.34954672     -0.25159649     -1.32501820
C      -2.72114025     -0.05713481     -1.48043555
C      -3.47754146      0.47499161     -0.43459191
Cl     -5.17281598      0.67819971     -0.71683740
C      -2.86533266      0.81701550      0.78020770
Cl     -3.81793065      1.47186846      2.07900572
C      -1.47862175      0.62006336      0.93468912
Cl     -0.69121676      1.02753245      2.43515757
C       1.69844532      0.85340431     -0.36175978
Cl      1.15409996      2.39770969     -0.94851131
H       4.56790687     -0.86984222      0.32886680
H       2.91876674     -2.60934095      0.93394867
H       0.50418368     -2.16115827      0.72395517
H      -0.77741810     -0.66208182     -2.15681837
H      -3.19462051     -0.32065777     -2.42424886
