29
Cc1ccc(N=c2sccn2C)c(C)c1
C       4.53704437      1.14946797      0.36291549
C       3.11397123      0.67708436      0.39968871
C       2.29694979      0.97398672      1.49374440
C       0.98106574      0.50985468      1.53484150
C       0.45717989     -0.25526010      0.48701895
N      -0.86303290     -0.72181835      0.57209311
C      -1.84278947      0.00703187      0.13668492
S      -1.70580353      1.63714697     -0.60917563
C      -3.43377444      1.71755901     -0.84506051
C      -4.03425987      0.61082717     -0.39076134
N      -3.19054349     -0.33818370      0.15958674
C      -3.62070637     -1.62074867      0.67492429
C       1.28401883     -0.59910427     -0.59602684
C       0.76475393     -1.44945529     -1.72039546
C       2.60463130     -0.12056757     -0.63360870
H       5.19134194      0.40227295      0.82237974
H       4.86438285      1.32189765     -0.66777737
H       4.64876803      2.09657278      0.90120372
H       2.67620222      1.56831811      2.32124519
H       0.35336452      0.74643714      2.38944688
H      -3.92447829      2.56363979     -1.30408570
H      -5.09750508      0.41137933     -0.42184130
H      -4.71306455     -1.70076952      0.69654466
H      -3.25844156     -1.76714002      1.69807917
H      -3.23661032     -2.43239713      0.04809859
H       0.29726351     -2.35970818     -1.33088028
H       1.57238875     -1.76249781     -2.39061524
H       0.03350149     -0.88995180     -2.31192357
H       3.24418146     -0.37587405     -1.47634410
