67
CC(CCC(=O)O)C1CCC2C3C(O)CC4CCCCC4(C)C3CCC12C
C       3.77632064     -2.17015437     -0.08756375
C       3.86590513     -0.72738972     -0.59766954
C       5.12299870     -0.04574462      0.00232917
C       5.09065903      0.15691380      1.51574176
C       6.36254874      0.81064414      1.97549607
O       6.65310177      1.98948359      1.85632852
O       7.22576174     -0.05727173      2.53384540
C       2.55645766      0.07742505     -0.35658463
C       2.67668664      1.53582751     -0.82017616
C       1.26023874      2.05795085     -0.69197146
C       0.34822501      0.90099440     -1.13418504
C      -0.96372799      0.84962705     -0.30635396
C      -1.85265851      2.09401983     -0.58915771
O      -1.38873222      3.17490570      0.22204422
C      -3.34420072      1.86313905     -0.29498320
C      -3.51026498      0.87044766      0.86395959
C      -4.94001469      0.88646366      1.43477112
C      -5.93650981      0.07518828      0.62313115
C      -5.45557158     -1.35716264      0.45837427
C      -4.10342838     -1.39212130     -0.24221205
C      -2.99078539     -0.55676314      0.45631923
C      -2.56617607     -1.26889874      1.76675004
C      -1.78420927     -0.43295340     -0.56999500
C      -0.92578458     -1.70386995     -0.71196749
C       0.51999381     -1.50719361     -0.26755741
C       1.23425878     -0.39353352     -1.06223540
C       1.50409247     -0.87556821     -2.50935152
H       3.37371887     -2.21527021      0.92921087
H       4.76307713     -2.64774531     -0.08100482
H       3.14497055     -2.78203610     -0.73632355
H       4.05118752     -0.77760164     -1.67843727
H       5.28924637      0.91925473     -0.49266250
H       6.00688513     -0.64592960     -0.25676765
H       4.96832529     -0.79422564      2.04524347
H       4.26127839      0.80038299      1.82674420
H       8.00651746      0.49551999      2.75171565
H       2.36544225      0.09338460      0.72637580
H       3.02182244      1.60120657     -1.85809936
H       3.35797577      2.12441515     -0.19851046
H       1.10448980      2.95726619     -1.29646126
H       1.08124943      2.32616075      0.35617307
H       0.07086328      1.08064140     -2.18244186
H      -0.67236835      0.86187670      0.75382114
H      -1.75058684      2.41188254     -1.63357188
H      -1.89076468      3.96838563     -0.03085927
H      -3.84173903      1.47213710     -1.19054598
H      -3.82771920      2.81641266     -0.05094767
H      -2.87452591      1.25070155      1.67800117
H      -5.29929370      1.91845778      1.52828094
H      -4.91848567      0.48720339      2.45694923
H      -6.90948835      0.07963810      1.12726982
H      -6.08517025      0.53754891     -0.35969377
H      -6.18623878     -1.92165503     -0.13241600
H      -5.39242972     -1.85014932      1.43493072
H      -4.25592442     -1.02153488     -1.26454845
H      -3.78448702     -2.43622282     -0.34582223
H      -1.66265358     -0.81436102      2.18736656
H      -2.36878729     -2.33495865      1.62064455
H      -3.34519543     -1.20758499      2.53379157
H      -2.22873683     -0.29185736     -1.56796785
H      -0.93857394     -2.01386289     -1.76462635
H      -1.35392321     -2.55959161     -0.18435058
H       0.53357320     -1.28067429      0.80572688
H       1.04080752     -2.46200890     -0.38274853
H       0.57248358     -1.02710149     -3.06430208
H       2.09266790     -0.14631797     -3.07657733
H       2.04532563     -1.82619264     -2.52699282
