13
CC1COC(=O)O1
C      -1.64319250     -0.33418239     -0.03067142
C      -0.22464431     -0.11054417      0.45231110
C       0.45778598      1.05065370     -0.20527831
O       1.82472060      0.68690833     -0.12743106
C       1.86035907     -0.67957719     -0.09625213
O       2.87288207     -1.34650722     -0.21979010
O       0.60912349     -1.19877297      0.08880266
H      -2.28221531      0.52154734      0.20638026
H      -2.06665014     -1.22905304      0.43774261
H      -1.67050561     -0.50667609     -1.11223390
H      -0.20748573     -0.02163306      1.54530935
H       0.19139222      1.17576490     -1.26067192
H       0.27843016      1.99207186      0.32178286
