32
Cc1cc(OC(=O)N(C)C)n(C(C)C)n1
C      -2.79689503      2.54593089      2.11089719
C      -1.92033917      1.60899712      1.37005769
C      -0.51261885      1.62814643      1.26965046
C      -0.17549709      0.55260310      0.47345671
O       0.96125373      0.04659153      0.01727980
C       2.16927692      0.58307091      0.32012042
O       2.35136612      1.56553931      1.03301825
N       3.21972213     -0.10904478     -0.28075616
C       4.56044683      0.43645571     -0.18320151
C       3.00945355     -1.15642006     -1.26458951
N      -1.37741254     -0.03635726      0.15159353
C      -1.58099368     -1.22263946     -0.67582273
C      -2.22687165     -2.35553804      0.12166797
C      -2.38730982     -0.89492095     -1.93241736
N      -2.44821375      0.59101371      0.68405667
H      -3.48546537      3.05068549      1.42569272
H      -3.38568544      2.00919181      2.86169402
H      -2.20954380      3.31252121      2.62631707
H       0.16183650      2.34031461      1.72393929
H       4.65983556      1.12428038      0.66067594
H       5.27300771     -0.38313936     -0.05237951
H       4.78667663      0.97523337     -1.10815749
H       3.80647405     -1.90040853     -1.17571339
H       3.03546713     -0.70728694     -2.26169669
H       2.04999731     -1.66011114     -1.12623497
H      -0.58985048     -1.56400392     -0.99587879
H      -3.23916359     -2.09405979      0.44915690
H      -2.29418274     -3.26523271     -0.48429499
H      -1.63790379     -2.58812094      1.01575403
H      -2.45864860     -1.77121781     -2.58532406
H      -3.40591029     -0.57424996     -1.68752497
H      -1.91230853     -0.08782393     -2.50103652
