28
c1ccc(CNc2ncnc3[nH]cnc23)cc1
C      -4.61473440      1.10701080      0.07800352
C      -4.16949858      0.02464707      0.83520752
C      -2.93178811     -0.56015848      0.56036532
C      -2.12982421     -0.06994169     -0.48030477
C      -0.78373516     -0.68966953     -0.77875335
N       0.26265917      0.20433750     -0.32451066
C       1.55580879     -0.31845498     -0.40037192
N       1.89614360     -1.20488420     -1.37541852
C       3.16652546     -1.66489190     -1.42474001
N       4.19617703     -1.37292990     -0.60459014
C       3.80922887     -0.50618914      0.34093353
N       4.57693825      0.01316513      1.34206307
C       3.78193851      0.84523324      2.08294914
N       2.55101643      0.89202481      1.61801432
C       2.55702717      0.05506895      0.51766708
C      -2.58527064      1.02555642     -1.22926825
C      -3.82236816      1.60899795     -0.95265182
H      -5.57717091      1.56291617      0.29434473
H      -4.78552767     -0.36250683      1.64258732
H      -2.59646048     -1.40001302      1.16459572
H      -0.70981557     -1.66464981     -0.27953580
H      -0.71184796     -0.86810530     -1.85930670
H       0.10423362      0.62199875      0.59029148
H       3.38347482     -2.36134383     -2.22983874
H       5.55275038     -0.19157753      1.49423015
H       4.15421972      1.38529153      2.94387567
H      -1.96594204      1.43108403     -2.02720483
H      -4.16415796      2.45798379     -1.53863308
