40
CCC(C)n1ccc(NS(=O)(=O)c2ccc(N)cc2)nc1=O
C      -5.00271055      0.42566869     -0.14121669
C      -4.27876144     -0.41651295      0.90112893
C      -2.99227190      0.25490060      1.42340323
C      -2.39015242     -0.54421618      2.58569429
N      -1.99499046      0.49287212      0.35714840
C      -1.43047324     -0.57294272     -0.31464823
C      -0.53483651     -0.39012956     -1.28353023
C      -0.21723225      1.01300933     -1.55024249
N       0.72312149      1.31378779     -2.53926947
S       1.93118303      0.38841274     -3.20322828
O       1.33997748     -0.81135181     -3.75431798
O       2.74236565      1.27392862     -4.00824259
C       2.89600320     -0.06153386     -1.78264155
C       3.05374101     -1.40439886     -1.43728746
C       3.80855055     -1.73780459     -0.30942527
C       4.37490909     -0.74284814      0.49447559
N       5.22608898     -1.09062290      1.54726645
C       4.26276872      0.59260685      0.09385288
C       3.51173676      0.94159137     -1.03129735
N      -0.73714338      2.02944337     -0.96709941
C      -1.66110910      1.81790398      0.02674069
O      -2.16956457      2.77357240      0.60661285
H      -5.24321697      1.41761332      0.25420701
H      -5.94025163     -0.05954728     -0.43090124
H      -4.39906458      0.55101527     -1.04516493
H      -4.06031928     -1.40243694      0.47499970
H      -4.96230358     -0.58454815      1.74268552
H      -3.29005056      1.22109146      1.84810905
H      -1.47879290     -0.06185929      2.95545920
H      -2.13189791     -1.56637095      2.29058213
H      -3.09953197     -0.60806276      3.41772178
H      -1.74917369     -1.57282772     -0.03749538
H      -0.11096957     -1.21053362     -1.83873645
H       0.85225761      2.30762934     -2.71970945
H       2.61689607     -2.19520925     -2.04259080
H       3.95790861     -2.78672463     -0.06450584
H       5.35038440     -0.36172789      2.24315627
H       5.03063039     -1.99484840      1.96486567
H       4.76643785      1.37534685      0.65629100
H       3.42985755      1.98666435     -1.32043380
