27
CCOC(=O)Cc1[nH]nc2ccc(Cl)cc12
C       5.15143906      0.95308897     -0.47389390
C       4.10678781     -0.08509706     -0.11391826
O       2.81237217      0.51355004     -0.25854778
C       1.77104753     -0.31725918      0.03636404
O       1.88740409     -1.48221812      0.39756251
C       0.46283587      0.42821118     -0.15381556
C      -0.76376445     -0.37970122      0.14002837
N      -0.74306307     -1.69194362      0.55054557
N      -1.95626939     -2.23556097      0.76112175
C      -2.82824244     -1.25639424      0.48320930
C      -4.23196573     -1.25830141      0.53035727
C      -4.81591020     -0.02482238      0.16320470
C      -4.05245826      1.12159926     -0.22135031
Cl     -4.91235988      2.56246696     -0.64433385
C      -2.64438470      1.15511116     -0.27854692
C      -2.10163458     -0.07315299      0.08833729
H       6.15997444      0.54127853     -0.37831227
H       5.06403380      1.82955837      0.17669263
H       5.00836014      1.30374341     -1.50135213
H       4.19268152     -0.94572395     -0.78663061
H       4.24940725     -0.41010858      0.92272339
H       0.41905811      0.76848504     -1.19484485
H       0.47555051      1.30199867      0.50783291
H       0.08093923     -2.27206427      0.70500696
H      -4.80646191     -2.12639227      0.82143037
H      -5.90323032      0.04978288      0.17588607
H      -2.08214661      2.02986579     -0.57130070
