21
COc1ccc(C(=O)O)cc1[N+](=O)[O-]
C       3.02792192     -1.07877440      1.14782150
O       2.30027860      0.09701630      0.81232878
C       1.03071869     -0.05497515      0.33147296
C       0.34859345     -1.27198044      0.25242269
C      -0.96737010     -1.32038660     -0.23214102
C      -1.62594638     -0.15277963     -0.64243848
C      -3.01718999     -0.26773276     -1.14180044
O      -3.66049891     -1.29677636     -1.22169651
O      -3.52874288      0.91599394     -1.51795048
C      -0.96229902      1.07249987     -0.57035274
C       0.35356062      1.09775256     -0.08976382
N       1.02023884      2.38168456     -0.03700976
O       1.93759111      2.57919581     -0.84497723
O       0.57958709      3.20575210      0.77632781
H       3.13355040     -1.73957189      0.28109378
H       4.03153766     -0.77322252      1.45876701
H       2.56230837     -1.60083123      1.98998559
H       0.80441506     -2.20705578      0.56528603
H      -1.48011969     -2.28095100     -0.28378244
H      -4.43698324      0.70188030     -1.82060112
H      -1.45115161      1.99326233     -0.88063171
