27
CC/C(CC(C)CC)=N\O
C      -3.34395518     -0.60980721      0.49112793
C      -2.22195450      0.01620686     -0.31649808
C      -1.12685747      0.52483541      0.60512400
C       0.00077872     -0.43416549      0.95414121
C       1.33478212     -0.03385577      0.29721984
C       2.46779567     -0.85273447      0.92424712
C       1.27569413     -0.21644184     -1.23288224
C       2.54179377      0.22716034     -1.95324418
N      -1.10150042      1.71015024      1.14088165
O      -2.20681842      2.47578662      0.75957292
H      -4.12432650     -0.99288366     -0.17343700
H      -2.97410415     -1.44126429      1.10022227
H      -3.79873362      0.12041430      1.16835538
H      -2.60506305      0.82968277     -0.94003924
H      -1.79603225     -0.72926776     -0.99653670
H       0.10111634     -0.42240468      2.04694406
H      -0.28139915     -1.45454637      0.67098668
H       1.52945750      1.02559684      0.50920497
H       2.36801679     -1.91649187      0.68341786
H       2.46410591     -0.75101334      2.01497779
H       3.44728537     -0.51269845      0.57482027
H       1.07332541     -1.26600433     -1.47885813
H       0.44255625      0.36935206     -1.63811269
H       3.38943624     -0.42151908     -1.71447307
H       2.80428180      1.25647174     -1.68964621
H       2.39053478      0.18330214     -3.03677295
H      -2.05021610      3.31613928      1.22925656
