57
CCCCCCCCC(=O)[O-].CCCCCCCCC(=O)[O-].[Ca+2]
C      -4.88386777      0.09812334      0.00182292
C      -3.58227171     -0.46225993     -0.54892750
C      -2.36787045      0.19043088      0.11094956
C      -1.06068438     -0.37598418     -0.44583602
C       0.15466799      0.27715243      0.21446639
C       1.46188621     -0.28927733     -0.34240490
C       2.67732894      0.36390219      0.31789528
C       3.98205321     -0.19962924     -0.23613347
C       5.25899423      0.39527520      0.36636438
O       5.10821246      1.28197208      1.25066898
O       6.32695700     -0.08843961     -0.10946866
C      -4.85268834     -0.45915049      0.23237092
C      -3.48465669     -0.53262789      0.89161171
C      -2.37274339     -0.13852476     -0.08026492
C      -0.99832864     -0.21372653      0.58674401
C       0.11446684      0.18066285     -0.38578497
C       1.48891820      0.10548311      0.28129731
C       2.60179697      0.49991542     -0.69125894
C       3.97337103      0.42560658     -0.02787073
C       5.15533480      0.80407628     -0.92632245
O       4.88188254      1.13597870     -2.11208222
O       6.28115166      0.73444539     -0.35305985
Ca      0.00000000      0.00000000      0.00000000
H      -4.96198458     -0.07799112      1.07942102
H      -4.95351877      1.17594782     -0.17644475
H      -5.73896091     -0.38243324     -0.48376162
H      -3.55875602     -1.54566761     -0.38346057
H      -3.55033948     -0.29864117     -1.63240072
H      -2.40683929      0.02738540      1.19490936
H      -2.39844635      1.27437932     -0.05395155
H      -1.02182636     -0.21274020     -1.52973998
H      -1.03020509     -1.45987260     -0.28072087
H       0.12417592      1.36103883      0.04937571
H       0.11583174      0.11387989      1.29836139
H       1.49224552     -1.37315817     -0.17723604
H       1.50056812     -0.12595605     -1.42630072
H       2.64480723      1.44830430      0.15518392
H       2.63651672      0.20303453      1.40229227
H       4.01981555     -0.03509186     -1.32021032
H       4.01151031     -1.28368390     -0.06976404
H      -5.63268256     -0.74490946      0.94501579
H      -5.06629171      0.55641646     -0.11595941
H      -4.91165402     -1.13652121     -0.62555002
H      -3.46973469      0.13130548      1.76377834
H      -3.31594893     -1.55229966      1.25700433
H      -2.39471996     -0.80300667     -0.95264791
H      -2.54851956      0.88052849     -0.44592093
H      -0.82266178     -1.23283972      0.95219677
H      -0.97648811      0.45089363      1.45898793
H       0.09264581     -0.48397163     -1.25801144
H      -0.06121020      1.19976369     -0.75125075
H       1.66445925     -0.91366524      0.64670382
H       1.51058292      0.77014450      1.15351046
H       2.57768793     -0.16309484     -1.56492762
H       2.42403223      1.51809224     -1.05892231
H       3.99396009      1.09129746      0.84399682
H       4.14803830     -0.59437463      0.33661624
