50
CC12CCC3C(CCC4CCCCC43C)C1CCC2=O
C      -3.08141191      1.67214912      0.22648908
C      -2.86308715      0.19044855      0.58530788
C      -2.11605090      0.04326400      1.90741280
C      -0.65069678      0.49468990      1.76246525
C       0.09800510     -0.19285796      0.58550735
C      -0.71618109     -0.12335763     -0.74760518
C      -0.01951809     -0.91688518     -1.85897782
C       1.42279339     -0.46664136     -2.06473343
C       2.22697664     -0.53904613     -0.76036484
C       3.70051881     -0.17213884     -1.01475983
C       4.49733848      0.08782894      0.26434590
C       3.83176190     -0.50656385      1.49379564
C       2.40002828     -0.00035925      1.70879701
C       1.58899764      0.27989704      0.40287442
C       1.64149459      1.80204430      0.10648478
C      -2.12535211     -0.65722749     -0.47147335
C      -3.12871226     -0.78775093     -1.61216144
C      -4.43903694     -1.10391476     -0.87544118
C      -4.22171441     -0.48042245      0.49327788
O      -5.05317668     -0.49774669      1.39109709
H      -3.67829332      1.79847787     -0.68320939
H      -2.14523538      2.21736011      0.08127668
H      -3.63252137      2.17819970      1.02852552
H      -2.14233903     -1.00093134      2.24527483
H      -2.60554478      0.62711758      2.69641438
H      -0.63413751      1.58177005      1.63936105
H      -0.13747669      0.28708106      2.70792113
H       0.14782376     -1.26000293      0.85638399
H      -0.78777016      0.91654811     -1.08350986
H      -0.56295375     -0.79923212     -2.80368355
H      -0.03226664     -1.98760476     -1.61824922
H       1.88877667     -1.10934445     -2.82189456
H       1.43694599      0.55097992     -2.47225991
H       2.21640855     -1.59667594     -0.45345804
H       3.78018872      0.70595931     -1.66762730
H       4.17137411     -0.99567336     -1.56738236
H       4.62364532      1.16716234      0.40915947
H       5.50929156     -0.31911681      0.15302898
H       3.81480103     -1.59972636      1.39572793
H       4.43114843     -0.29079604      2.38596271
H       1.89250242     -0.75561849      2.32217827
H       2.43325972      0.90490515      2.32857756
H       2.66149946      2.15705255     -0.06178090
H       1.25197142      2.38936197      0.94406177
H       1.06219141      2.07535185     -0.77925982
H      -2.00090410     -1.67994804     -0.07427249
H      -2.86982911     -1.58857588     -2.31174845
H      -3.21288925      0.14171251     -2.18554313
H      -4.57222948     -2.18282947     -0.75481624
H      -5.30041451     -0.65837340     -1.37749706
