35
CCCCCCCOC(=O)c1cccnc1
C      -6.56923702     -0.25205340     -0.26103358
C      -5.18281151     -0.85993968     -0.40176690
C      -4.08844593      0.17802037     -0.15434756
C      -2.69544878     -0.43746570     -0.29686120
C      -1.60024057      0.60108606     -0.04930556
C      -0.20962730     -0.01350921     -0.19161467
C       0.88859619      1.01522716      0.05363452
O       2.15399620      0.35705260     -0.09922968
C       3.22731758      1.16315035      0.09337853
O       3.19084132      2.35018216      0.37368698
C       4.48312989      0.40317776     -0.08355366
C       4.52976330     -0.95637240     -0.40458971
C       5.76619838     -1.58376627     -0.55024616
C       6.91450784     -0.82877801     -0.36955934
N       6.90566486      0.48563402     -0.05910821
C       5.68959021      1.07277853      0.07708358
H      -7.33625480     -1.01155491     -0.44201109
H      -6.71716144      0.55862014     -0.98163259
H      -6.72071630      0.15064764      0.74555579
H      -5.07914430     -1.68740821      0.30974806
H      -5.07561263     -1.28168981     -1.40791790
H      -4.19920241      1.00539941     -0.86585910
H      -4.20273492      0.59970162      0.85173124
H      -2.58129193     -0.85897303     -1.30300660
H      -2.58482353     -1.26471397      0.41479252
H      -1.71073172      1.42834001     -0.76091909
H      -1.71426155      1.02261450      0.95680784
H      -0.08878322     -0.84738595      0.51122723
H      -0.08527894     -0.44488755     -1.19280955
H       0.81084967      1.83116079     -0.67446184
H       0.80726608      1.41921494      1.06955574
H       3.61937064     -1.53311914     -0.54268759
H       5.83231747     -2.63746897     -0.79899964
H       7.90047696     -1.27384483     -0.47266370
H       5.72192223      2.13092297      0.32708803
