27
CC1CCC2(CCC(C)O2)O1
C      -3.24561114      0.97377657      0.09451744
C      -2.11076473      0.37474734     -0.72321579
C      -1.98508608     -1.13234596     -0.53994674
C      -0.88905159     -1.25701219      0.49395273
C       0.00478107     -0.09190625      0.12289852
C       0.93462452      0.38094838      1.22102862
C       1.98577145      1.11917075      0.42359573
C       2.07550663      0.30304951     -0.85960587
C       3.23070699     -0.68727859     -0.84687484
O       0.85153521     -0.44292101     -0.97828727
O      -0.87866221      0.96440039     -0.27277587
H      -4.21303802      0.56329051     -0.20984234
H      -3.10481108      0.78678267      1.16472212
H      -3.27207746      2.06146177     -0.03208872
H      -2.25252105      0.62778448     -1.77946694
H      -2.91706157     -1.62386474     -0.24596700
H      -1.65488406     -1.58923301     -1.48112710
H      -0.38583635     -2.22702761      0.44579988
H      -1.31463866     -1.12218462      1.49514226
H       1.39738960     -0.46856681      1.73664066
H       0.44829883      1.02628639      1.95825343
H       1.62678732      2.12932921      0.19055059
H       2.93790380      1.22319768      0.95200402
H       2.16999412      0.95872080     -1.73193400
H       3.23152264     -1.28185923     -1.76679981
H       4.19273516     -0.17300179     -0.76279513
H       3.13648667     -1.39574465     -0.01661729
