27
Nc1ccc(S(=O)(=O)N=C2CC=CN2)cc1
N       5.31093351      0.21470699      0.14925235
C       3.95982690     -0.04974440      0.39956556
C       3.28032795     -1.01108425     -0.35635301
C       1.90489396     -1.20269945     -0.20039006
C       1.19566253     -0.38945362      0.68557602
S      -0.55469685     -0.63874397      0.90507553
O      -0.88869790     -0.14335951      2.22687656
O      -0.83102166     -2.01935204      0.55623889
N      -1.20244683      0.33668379     -0.21261692
C      -2.48695598      0.39618662     -0.32377618
C      -3.54279163     -0.36663047      0.49636242
C      -4.80106032      0.17552547     -0.15587694
C      -4.50042116      1.04827483     -1.12552872
N      -3.15352703      1.18294098     -1.23025267
C       1.84919277      0.60791870      1.41184130
C       3.22498385      0.78790931      1.24552538
H       5.78979610      0.67366898      0.91798529
H       5.82851119     -0.58480780     -0.20259290
H       3.82042526     -1.62391159     -1.07371850
H       1.39810644     -1.97144182     -0.77896289
H      -3.49564785     -0.09456602      1.55252784
H      -3.45413766     -1.44481122      0.35009756
H      -5.79945729     -0.11498411      0.13587762
H      -5.17307565      1.59955421     -1.76779324
H      -2.69920563      1.78986917     -1.89610284
H       1.29890092      1.25329046      2.09244263
H       3.72158206      1.58906073      1.78721058
