26
NCC1CCC(C(=O)O)CC1
N       3.13120908      1.07483861      0.03279190
C       2.23099534     -0.07185859     -0.02783704
C       0.90221884      0.27609435     -0.72985619
C       0.02341858     -0.97349598     -0.90194319
C      -0.57798187     -1.46979429      0.41334971
C      -1.34259586     -0.37677395      1.16763309
C      -2.69955513     -0.12072430      0.53818101
O      -3.09421514      0.90379122      0.00896732
O      -3.51926942     -1.18758357      0.63423364
C      -0.52126028      0.91241092      1.30249513
C       0.10277290      1.37753153     -0.01485732
H       4.02654495      0.78381877      0.42306341
H       3.32516414      1.40995146     -0.91014085
H       2.73257516     -0.87922542     -0.57388707
H       2.05933848     -0.43118113      0.99126068
H       1.14876237      0.64311804     -1.73597170
H      -0.79089811     -0.74123279     -1.60036507
H       0.60336062     -1.78089169     -1.36494713
H      -1.22952101     -2.32626975      0.20302005
H       0.22408516     -1.85070988      1.05702554
H      -1.55618730     -0.73095450      2.18544187
H      -4.34936888     -0.88280016      0.21113457
H      -1.14399206      1.71955469      1.70752870
H       0.27821179      0.74604454      2.03505895
H       0.73008572      2.25660635      0.17151362
H      -0.69389806      1.71973553     -0.68706934
