16
O=C(O)c1cc(I)cc(I)c1O
O      -2.30887393     -1.74879524      0.10064728
C      -1.97679639     -0.57579425      0.12938946
O      -2.87696695      0.41285336      0.24697498
C      -0.57611518     -0.10433707      0.04068594
C      -0.28109409      1.26670491      0.08164660
C       1.04342931      1.69454936     -0.00307737
I       1.47474127      3.72818113      0.05817575
C       2.08129090      0.77252723     -0.12843018
C       1.79062091     -0.59473235     -0.16955745
I       3.39889508     -1.92591754     -0.35922753
C       0.46508401     -1.04122508     -0.08562803
O       0.22331368     -2.39197233     -0.12984975
H      -3.74539522     -0.04065914      0.29441058
H      -1.08253432      1.99570019      0.17924201
H       3.11147707      1.11503188     -0.19387010
H      -0.74107615     -2.56211506     -0.06153219
