14
Nc1ncccc1O
N       2.15419005      0.56685162      0.12569345
C       0.76727061      0.38530109      0.00465861
N       0.00592038      1.48888865     -0.04762065
C      -1.33251878      1.29618562     -0.12666728
C      -1.94254059      0.04853234     -0.15272143
C      -1.13427148     -1.08149555     -0.10756030
C       0.23686574     -0.90623168     -0.03792597
O       1.05639511     -1.99949582     -0.04186000
H       2.28890563      1.57775543      0.13492558
H       2.46465253      0.17316127      1.01000091
H      -1.92601194      2.20563241     -0.16834482
H      -3.02141873     -0.03891786     -0.21563237
H      -1.56186121     -2.07779623     -0.14066262
H       1.94442267     -1.63837129     -0.23628310
