86
CCCCCCCCCCCCCCOC(=O)CCCCCCCCCCCCC
C       8.68811243      2.17962794      1.56201241
C       7.79374474      1.79485874      0.39429804
C       8.04684668      0.35556607     -0.05438826
C       7.13857052     -0.02870319     -1.22421584
C       7.37459996     -1.47653145     -1.65897782
C       6.54496553     -1.89195980     -2.87867404
C       5.02409636     -1.79022288     -2.71604293
C       4.47682400     -2.65649943     -1.57931293
C       2.94573435     -2.66884030     -1.50623062
C       2.27711632     -1.30601514     -1.29485288
C       2.74454073     -0.58772572     -0.02681642
C       1.96673958      0.71126484      0.19701973
C       2.53225340      1.56438102      1.33855963
C       2.52304653      0.88317477      2.70569999
O       1.20715835      0.42050785      3.04168677
C       0.39855124      1.32848758      3.65266363
O       0.70221047      2.48108894      3.92803809
C      -0.95825517      0.72783735      3.91647607
C      -1.96354163      1.22448556      2.88389402
C      -3.39792821      0.77601059      3.17306109
C      -3.62775856     -0.73844525      3.17068085
C      -3.26085454     -1.46035597      1.87002978
C      -3.95968769     -0.94769977      0.60668634
C      -5.48518469     -1.04889946      0.67273590
C      -6.12925176     -0.62452021     -0.65008732
C      -7.65552515     -0.70657552     -0.57136772
C      -8.35225513     -0.40129646     -1.90023315
C      -8.18116104      1.04865114     -2.35802901
C      -8.98793478      1.32584635     -3.62736760
C      -8.82183425      2.76417357     -4.09106989
H       8.49169828      3.21262893      1.86552011
H       9.74545645      2.10154310      1.28926586
H       8.50633445      1.53142576      2.42528989
H       7.97539188      2.48233190     -0.44021319
H       6.74488929      1.91405995      0.69076788
H       9.09680005      0.24106505     -0.34999541
H       7.87093845     -0.32661206      0.78621613
H       7.32330160      0.64411824     -2.07013992
H       6.09503029      0.10772186     -0.92206993
H       8.43491354     -1.60568472     -1.91054865
H       7.17524876     -2.15432903     -0.82099069
H       6.80548494     -2.92547835     -3.13863196
H       6.84282740     -1.27535523     -3.73598741
H       4.55923786     -2.10393614     -3.65914194
H       4.74319077     -0.74237361     -2.56822002
H       4.81930494     -3.68920015     -1.72104298
H       4.88330464     -2.32730002     -0.61742116
H       2.64558963     -3.33906909     -0.69100744
H       2.54883565     -3.11056948     -2.42864403
H       1.19267321     -1.46437645     -1.23919996
H       2.44933718     -0.66664944     -2.16852676
H       3.81189164     -0.35447564     -0.10104700
H       2.61292684     -1.25469543      0.83267292
H       0.91131103      0.48182767      0.38764664
H       1.99501370      1.31229768     -0.72056521
H       3.55773212      1.86829102      1.09720248
H       1.93313212      2.48142446      1.39255007
H       3.18320420      0.00972397      2.70544516
H       2.91153185      1.55832039      3.47755359
H      -1.25704873      1.00939784      4.93238318
H      -0.87748044     -0.36444035      3.90395227
H      -1.94684109      2.32181148      2.86366801
H      -1.65653075      0.90559174      1.88096414
H      -3.69975625      1.16801295      4.15258376
H      -4.06622059      1.24772525      2.44328693
H      -3.06100471     -1.19369144      3.99166718
H      -4.68180497     -0.92906489      3.40582062
H      -3.49228948     -2.52613056      1.99274730
H      -2.17654107     -1.40510613      1.71641265
H      -3.66413204      0.08874694      0.40726544
H      -3.59832412     -1.53940723     -0.24397674
H      -5.77471953     -2.08007129      0.90813952
H      -5.86987572     -0.41123868      1.47650296
H      -5.76698723     -1.27053198     -1.45874759
H      -5.81904677      0.39922728     -0.88674580
H      -7.94336650     -1.71852173     -0.26027464
H      -8.02397237     -0.02217543      0.20242461
H      -7.98016500     -1.08164802     -2.67581572
H      -9.42186135     -0.61378636     -1.78054609
H      -8.50658066      1.72762868     -1.56065102
H      -7.12372777      1.25926394     -2.55313893
H     -10.05051126      1.12851668     -3.44475366
H      -8.66515784      0.65045156     -4.42800317
H      -9.16962191      3.46558975     -3.32581695
H      -7.77282658      2.98708410     -4.31089634
H      -9.40407661      2.93841900     -5.00140488
