19
CC(=O)C(C)(C)C
C       2.14531572     -0.48140208     -0.30413555
C       0.98064696     -0.43201132      0.65651448
O       1.14568373     -0.76328478      1.83294549
C      -0.38291686      0.05946371      0.13315569
C      -0.72348509     -0.60538552     -1.20680013
C      -1.48069718     -0.29869293      1.14987598
C      -0.33114868      1.58344146     -0.03056591
H       3.06784150     -0.66718288      0.25416593
H       2.25172147      0.47165794     -0.82584472
H       2.00353629     -1.29424497     -1.01986194
H      -0.02631962     -0.30591520     -1.99707603
H      -1.73043445     -0.33119287     -1.54125668
H      -0.68000721     -1.69761493     -1.12707953
H      -1.29918793      0.17902127      2.11969154
H      -2.46780943      0.02523088      0.80120373
H      -1.52307445     -1.38070482      1.32058421
H       0.39674440      1.88410154     -0.79173362
H      -1.30618385      1.98340693     -0.33067019
H      -0.04022532      2.07130857      0.90688726
