35
CN1CCOc2cc(COc3ccccc3)cnc21
C       4.17820960      2.03489729      1.29506476
N       4.03052286      0.69349241      0.75261815
C       4.88983217      0.31929169     -0.36597887
C       4.67974410     -1.16086021     -0.67867264
O       3.33665838     -1.43251820     -1.09981378
C       2.40152524     -0.76261030     -0.34440678
C       1.07779841     -1.15528951     -0.53819929
C       0.05776621     -0.51434298      0.16262276
C      -1.37892543     -0.93472687      0.02470762
O      -2.19399615      0.22676635     -0.12407421
C      -3.54358177      0.03214415     -0.22851449
C      -4.29092371      1.20511202     -0.36647819
C      -5.68092757      1.15439614     -0.48236504
C      -6.33387417     -0.07521265     -0.46105266
C      -5.59562302     -1.24959095     -0.32445388
C      -4.20264272     -1.19804998     -0.20842711
C       0.43448009      0.49610915      1.03819159
N       1.71107945      0.90221420      1.24074525
C       2.69650428      0.28656213      0.54894959
H       3.75138031      2.78893607      0.62368366
H       3.71082157      2.12323524      2.28228414
H       5.23990291      2.27036373      1.42969725
H       5.93947411      0.48856374     -0.10102076
H       4.65639045      0.93585577     -1.24381529
H       4.90904203     -1.79158504      0.18951600
H       5.34471395     -1.46468155     -1.49380219
H       0.85824175     -1.95944420     -1.23466059
H      -1.65997591     -1.49304676      0.92631577
H      -1.49219587     -1.57486521     -0.85882028
H      -3.78477154      2.16738358     -0.38440680
H      -6.25033388      2.07376606     -0.58916436
H      -7.41614549     -0.11872174     -0.55106892
H      -6.10541082     -2.20974153     -0.30822354
H      -3.66839595     -2.13617240     -0.10479072
H      -0.30636387      1.03237032      1.62705097
