40
O.O.O.O.O.O.O.O.O.O=[N+]([O-])[O-].O=[N+]([O-])[O-].O=[N+]([O-])[O-].[Al+3]
O      -0.00570308      0.38515871     -0.00000000
O      -0.00086783      0.36003678     -0.00000000
O      -0.00650185      0.38840325     -0.00000000
O      -0.00344155      0.38033241     -0.00000000
O      -0.00439129      0.38636848     -0.00000000
O      -0.00253884      0.37949828     -0.00000000
O      -0.00615937      0.37717739     -0.00000000
O      -0.00083058      0.40154523     -0.00000000
O      -0.00105609      0.37146566     -0.00000000
O      -0.23777390      1.22731972     -0.28103257
N      -0.01324150      0.03206636     -0.09804961
O       1.21888323     -0.45948560     -0.39013755
O      -0.96786783     -0.79990048      0.38734469
O      -0.12929755      1.25995442      0.00653712
N      -0.00556869      0.01080424      0.00011614
O      -1.13799413     -0.73958154      0.01217937
O       1.27286037     -0.53117711     -0.01883264
O      -0.08236833      1.26594805      0.00992352
N       0.00597193      0.03858858      0.00028822
O      -1.13300069     -0.71994287     -0.00492397
O       1.20939710     -0.58459377     -0.00528777
Al      0.00000000      0.00000000      0.00000000
H      -0.79607794     -0.19467500     -0.00000000
H       0.80178102     -0.19048370      0.00000000
H      -0.82644698     -0.18031370     -0.00000000
H       0.82731481     -0.17972308      0.00000000
H      -0.79892061     -0.19659797     -0.00000000
H       0.80542246     -0.19180528      0.00000000
H      -0.81331853     -0.19139508     -0.00000000
H       0.81676008     -0.18893733      0.00000000
H       0.80552124     -0.19163390      0.00000000
H      -0.80112995     -0.19473458     -0.00000000
H       0.80301472     -0.18887612      0.00000000
H      -0.80047588     -0.19062216     -0.00000000
H       0.81305065     -0.18646174      0.00000000
H      -0.80689128     -0.19071565     -0.00000000
H      -0.79597812     -0.20114104     -0.00000000
H       0.79680870     -0.20040420      0.00000000
H      -0.82255896     -0.18610766     -0.00000000
H       0.82361505     -0.18535800      0.00000000
