24
CCOC(=S)SC(CC(=O)O)C(=O)O
C       3.03594832      0.79551751      1.46001792
C       2.71261974      1.13689090      0.01783455
O       1.27639291      1.09750277     -0.12961511
C       0.64888437      1.28289513     -1.32480058
S       1.45932584      1.69939807     -2.72577177
S      -1.10169970      1.10927588     -1.29642511
C      -1.23061201     -0.49798945     -0.42819111
C      -2.67803802     -0.78426843     -0.03414547
C      -3.07375077     -0.03213941      1.19923714
O      -3.96475270      0.79428186      1.28850834
O      -2.35706964     -0.38633213      2.28252150
C      -0.73420107     -1.60244460     -1.33925698
O      -1.40931059     -2.30868627     -2.07057335
O       0.60505442     -1.76297603     -1.29912616
H       2.64982387     -0.19663520      1.71651494
H       4.11576657      0.81027064      1.63193402
H       2.55905023      1.50817919      2.14103570
H       3.07899091      2.14288738     -0.21113245
H       3.17560071      0.39759452     -0.64399761
H      -0.60219847     -0.49111964      0.46898678
H      -2.82697042     -1.84962774      0.18560254
H      -3.38124386     -0.54340570     -0.84100450
H      -2.73887462      0.15698765      3.00577912
H       0.78126398     -2.47605691     -1.95076652
