23
CCCCCCCCl
C      -3.81114462     -0.29386598      0.02923568
C      -2.54109004      0.54172094      0.01302135
C      -1.29158275     -0.33768080      0.05301225
C      -0.01627565      0.50665012      0.03655697
C       1.23423016     -0.37334421      0.07656844
C       2.50989290      0.47081843      0.06011531
C       3.75097103     -0.41098414      0.10010316
Cl      5.22268673      0.58760551      0.08030946
H      -4.69210740      0.35495291      0.00008192
H      -3.85236643     -0.96185627     -0.83703530
H      -3.86810041     -0.90352157      0.93665644
H      -2.54644839      1.22071442      0.87362789
H      -2.53081108      1.16271737     -0.89028499
H      -1.30887363     -0.95971988      0.95625036
H      -1.29323819     -1.01771238     -0.80758363
H       0.00090746      1.12849761     -0.86677740
H      -0.01472564      1.18649019      0.89726475
H       1.21705470     -0.99521384      0.97993469
H       1.23268300     -1.05321385     -0.78416483
H       2.50900057      1.15087201      0.92098171
H       2.52463262      1.09285962     -0.84344013
H       3.77448562     -1.01919758      1.00932704
H       3.79021946     -1.07758861     -0.76665076
