13
Oc1ccc(Cl)c(Cl)c1Cl
O      -2.46305924     -0.64711646      0.01805971
C      -1.12849958     -0.34300487      0.00559711
C      -0.24408743     -1.41197679     -0.07578626
C       1.12711846     -1.16713829     -0.09249110
C       1.60893316      0.14598792     -0.02773370
Cl      3.32671095      0.35483948     -0.05428573
C       0.71793367      1.22918222      0.05462515
Cl      1.31668340      2.85708850      0.13488138
C      -0.66237095      0.97674437      0.07109192
Cl     -1.83662600      2.24945737      0.17070543
H      -2.95915216      0.19175933      0.07749259
H      -0.62161587     -2.43047983     -0.12591699
H       1.81803160     -2.00534295     -0.15623951
