14
O=c1ncc2[nH]cnc2[nH]1
O      -3.33941716     -0.75102659      0.17563323
C      -2.19325174     -0.30986420      0.12670413
N      -1.93718170      1.05483323      0.19414757
C      -0.71989060      1.49479710      0.14041307
C       0.35887617      0.58613048      0.01241048
N       1.71175132      0.71547285     -0.06956956
C       2.21564289     -0.56060581     -0.18207724
N       1.26162776     -1.47268057     -0.17507896
C       0.12541357     -0.75029720     -0.05478672
N      -1.14863452     -1.20525516      0.00179597
H      -0.52525877      2.57766482      0.19449846
H       2.25411502      1.56903302     -0.05280751
H       3.27730452     -0.75582722     -0.26477846
H      -1.34109677     -2.19237474     -0.04650445
