30
NS(=O)(=O)c1nnc(NS(=O)(=O)Cc2ccccc2)s1
N       4.76527527     -0.25015328     -1.94457184
S       3.56771716     -1.40763923     -1.69168762
O       4.26288882     -2.59451387     -1.24690875
O       2.75033937     -1.39405298     -2.88453124
C       2.52574638     -0.90827159     -0.36931727
N       2.58518141      0.23654325      0.27945609
N       1.60759760      0.30619421      1.25492180
C       0.85372539     -0.76834037      1.27389656
N      -0.28453638     -0.94998800      2.14197475
S      -0.87752683      0.38872052      2.93230692
O      -2.16203403     -0.03305429      3.46178699
O       0.13775408      0.87858488      3.84082045
C      -1.18864685      1.64808636      1.66940257
C      -1.81020286      1.04785199      0.43154230
C      -3.09641300      0.48959576      0.45637853
C      -3.64596143     -0.07684374     -0.69486452
C      -2.92434342     -0.07934225     -1.88642915
C      -1.65684041      0.49543821     -1.93249299
C      -1.10643366      1.06409792     -0.78343454
S       1.28206408     -1.96548243      0.12767517
H       4.75147451      0.05149432     -2.91959690
H       5.67172459     -0.62486297     -1.66036737
H      -1.00453097     -1.58024862      1.79626305
H      -0.23832376      2.14375643      1.45101464
H      -1.86033452      2.39168770      2.11095745
H      -3.68770677      0.49024742      1.37174578
H      -4.64308880     -0.51005431     -0.66324721
H      -3.35622539     -0.51699510     -2.78315389
H      -1.09979754      0.50794384     -2.86659247
H      -0.11854204      1.51960021     -0.84568961
