39
CCCCCCOCCCCCC
C       6.35085749      0.83561700     -0.09175940
C       5.60208067     -0.21184923     -0.90123583
C       4.08113882     -0.12863063     -0.74840429
C       3.59989554     -0.43990109      0.67123024
C       2.07787622     -0.56186415      0.77674021
C       1.34090237      0.74231437      0.47666094
O      -0.04643681      0.63807654      0.79878026
C      -0.81169248     -0.03058028     -0.20259220
C      -2.27475956     -0.01611562      0.23015358
C      -3.17027795     -0.71034517     -0.79480919
C      -4.63190193     -0.81910308     -0.35148357
C      -5.33456912      0.53423492     -0.23706849
C      -6.80968742      0.36644500      0.09453662
H       6.00041444      1.84393251     -0.33369340
H       7.42173405      0.78682655     -0.31394878
H       6.22846512      0.67467405      0.98329216
H       5.85233736     -0.07829558     -1.96048972
H       5.95188941     -1.21113364     -0.61711916
H       3.74476735      0.86973288     -1.05060542
H       3.62710018     -0.84246367     -1.44666334
H       3.94662953      0.33340909      1.36609766
H       4.04335831     -1.38698275      1.00227314
H       1.81583284     -0.89135557      1.79008351
H       1.72751904     -1.35665106      0.10838920
H       1.74811358      1.54146707      1.10545121
H       1.46211581      1.05383868     -0.56654982
H      -0.69780228      0.48942948     -1.16059754
H      -0.46558345     -1.06326213     -0.31201507
H      -2.58847169      1.02349913      0.37932910
H      -2.36780996     -0.50386029      1.20843878
H      -2.79120393     -1.72458007     -0.97191624
H      -3.11522656     -0.18128421     -1.75398329
H      -5.16536414     -1.43822687     -1.08357145
H      -4.68702354     -1.34794895      0.60787008
H      -4.86744721      1.14155297      0.54537028
H      -5.23883363      1.08516533     -1.17975193
H      -7.32518729     -0.20333868     -0.68517003
H      -6.94029746     -0.15733987      1.04687511
H      -7.29345172      1.34489702      0.17557677
