32
CCCOCC(O)COCCC
C      -4.58076628      1.02199606     -0.78436528
C      -4.45654156      0.36990353      0.58490507
C      -3.17393450      0.77467391      1.30927771
O      -2.00144158      0.49029089      0.54757474
C      -1.60712990     -0.87995507      0.61215379
C      -0.35296827     -1.10598399     -0.23185757
O       0.02500174     -2.48815611     -0.16394916
C       0.82255256     -0.24292409      0.23803648
O       1.96394133     -0.58403927     -0.56674979
C       3.10353830      0.19966206     -0.21241160
C       4.26727034     -0.22420231     -1.09887816
C       5.52881404      0.56149373     -0.78971509
H      -3.77228267      0.70538043     -1.45073817
H      -4.55295471      2.11320109     -0.70251611
H      -5.53013284      0.74090146     -1.25112388
H      -5.31865448      0.65181146      1.19990299
H      -4.49476995     -0.71697854      0.45727581
H      -3.18544210      1.85677717      1.48059544
H      -3.11411946      0.29586851      2.29362391
H      -1.41356064     -1.16310363      1.65422663
H      -2.40867305     -1.52805319      0.24115139
H      -0.56244539     -0.87904490     -1.28386219
H       0.91939675     -2.51617237     -0.56058583
H       1.06087703     -0.46314008      1.28506333
H       0.59701981      0.82303826      0.12613234
H       2.87831732      1.26158999     -0.36360699
H       3.34922473      0.03208546      0.84251323
H       3.99437074     -0.09068184     -2.15258544
H       4.45574024     -1.29681832     -0.97007237
H       5.84020671      0.41062909      0.24882820
H       6.34699623      0.23686196     -1.44012978
H       5.37254953      1.63308864     -0.94959565
