38
CCCCCCCCCCCC(=O)O
C      -6.08253903      0.42593955     -0.35186782
C      -5.19266920     -0.03356255      0.79211874
C      -3.71894209      0.26144183      0.50909986
C      -2.82924078     -0.20701206      1.66265330
C      -1.35466340      0.16600279      1.48482046
C      -0.68508713     -0.54415106      0.30613377
C       0.81155895     -0.22560125      0.24525617
C       1.47970709     -0.92951259     -0.93803008
C       2.99900936     -0.73871467     -0.97974063
C       3.42143244      0.70976554     -1.24885462
C       4.93437117      0.85241627     -1.41941428
C       5.68774234      0.69688146     -0.12491918
O       5.23497661      0.70919621      1.00631604
O       7.01311674      0.56114361     -0.32924852
H      -5.98850364      1.50459309     -0.51308903
H      -7.13112622      0.20598796     -0.12827669
H      -5.81938211     -0.08526207     -1.28340193
H      -5.50373688      0.47150546      1.71398569
H      -5.33362229     -1.10949353      0.94780641
H      -3.58363542      1.33860953      0.35388576
H      -3.42594937     -0.24054866     -0.41970863
H      -3.18538231      0.24661581      2.59601073
H      -2.92172507     -1.29309141      1.78465485
H      -0.82314647     -0.09519429      2.40841167
H      -1.26212194      1.25223642      1.36428087
H      -0.82640414     -1.62744156      0.40156457
H      -1.15424648     -0.23568535     -0.63472463
H       0.94254464      0.85888781      0.16088186
H       1.29236214     -0.54055415      1.17921018
H       1.03804693     -0.57631544     -1.87777663
H       1.27284694     -2.00528296     -0.87715548
H       3.43517073     -1.09345575     -0.03881956
H       3.40046489     -1.38031764     -1.77405268
H       2.93507479      1.05607397     -2.16891518
H       3.07926804      1.36310436     -0.43873212
H       5.15892494      1.85227649     -1.80743145
H       5.30074656      0.11058981     -2.13757416
H       7.38475868      0.48546424      0.57464236
