17
Cc1cccc2n[nH]nc12
C       2.20056223     -0.96802285      0.35253493
C       0.97000593     -0.15555382      0.11374206
C       1.04284644      1.24477394     -0.09463882
C      -0.08896759      2.07401808     -0.32686332
C      -1.40616733      1.58417541     -0.37361242
C      -1.51746239      0.19858265     -0.17105779
N      -2.61892168     -0.56979788     -0.15503486
N      -2.11061920     -1.78383304      0.07855205
N      -0.78902195     -1.92330631      0.22238958
C      -0.34855880     -0.66182508      0.06939002
H       2.71617699     -0.61521946      1.25127839
H       1.96215922     -2.02664687      0.49308818
H       2.87862640     -0.88467330     -0.50265502
H       2.02437948      1.72229643     -0.07708772
H       0.07360683      3.14187995     -0.47585684
H      -2.26580573      2.21595903     -0.55029241
H      -2.72283884     -2.59280688      0.14612400
