33
Cc1c2ccccc2cc2c1cc(F)c1ccccc12
C      -1.71924944     -2.83481906     -0.11094204
C      -1.28380262     -1.38122342     -0.11313802
C      -2.26846739     -0.34929535     -0.19939984
C      -3.67048113     -0.56693632     -0.23252970
C      -4.58648502      0.48400571     -0.33415478
C      -4.13051746      1.79011850     -0.40157417
C      -2.76168659      2.03878909     -0.35706377
C      -1.83141745      0.98822947     -0.25001671
C      -0.46074897      1.27817894     -0.18674604
C       0.54198829      0.29416095     -0.04367099
C       0.10976912     -1.05852149      0.00987747
C       1.09635174     -2.04544837      0.19356603
C       2.44453419     -1.72779709      0.29422481
F       3.31779004     -2.73403819      0.46632620
C       2.89480192     -0.41402855      0.22240390
C       4.27146038     -0.13512145      0.32297702
C       4.74703952      1.16990670      0.25814243
C       3.84873323      2.21099832      0.09236718
C       2.47894807      1.94234209     -0.00766219
C       1.94987321      0.62458301      0.05293344
H      -1.01106144     -3.46672658     -0.65559781
H      -2.66508059     -2.99142177     -0.63510839
H      -1.81663381     -3.19489413      0.91759790
H      -4.08374950     -1.56935811     -0.16679479
H      -5.65273562      0.27507828     -0.35763124
H      -4.83405749      2.61404485     -0.48137365
H      -2.42215731      3.07184796     -0.40164722
H      -0.17976554      2.32713731     -0.23234205
H       0.84713042     -3.09846501      0.27684728
H       4.98460065     -0.94784262      0.45424899
H       5.81219654      1.36883440      0.33706628
H       4.20580670      3.23639004      0.03964047
H       1.82707336      2.80129188     -0.13823648
