9
C/C=N/O
C      -1.34293606      0.22610270      0.10186887
C       0.04227014     -0.32825355      0.20218719
N       1.06608883      0.45555307      0.29403415
O       2.22530211     -0.32446308      0.37329718
H      -1.79647173     -0.12211358     -0.82959044
H      -1.93518354     -0.14836832      0.94066574
H      -1.33061940      1.31853588      0.11903529
H       0.14494191     -1.42770591      0.19392627
H       2.92660774      0.35071280      0.43826270
