25
O=C(O)CSC(=S)OCc1ccccc1
O       2.17626299     -0.65810367     -1.70504417
C       3.32326302     -0.25440821     -1.61088091
O       4.34433388     -1.01165766     -2.06581016
C       3.81079701      1.05588283     -1.03875295
S       2.47333629      2.05018850     -0.31183763
C       1.85999176      0.93082523      0.89782289
S       2.78489663      0.35876095      2.17074826
O       0.56957462      0.50821797      0.91996303
C      -0.35832160      0.94343776     -0.08575259
C      -1.64195982      0.18002491      0.11001654
C      -1.77710934     -1.11447072     -0.41220627
C      -2.95797228     -1.83386933     -0.22385497
C      -4.01088715     -1.27015681      0.49437536
C      -3.88226057      0.01057040      1.02933539
C      -2.70181491      0.73199123      0.84219196
H       3.91537715     -1.82863035     -2.39949819
H       4.25150702      1.63843331     -1.85348620
H       4.58305398      0.86313453     -0.28910291
H       0.02708172      0.74668321     -1.09185887
H      -0.53867989      2.01931512      0.02193825
H      -0.95597343     -1.56867924     -0.96392924
H      -3.05335228     -2.83630578     -0.63247932
H      -4.92889355     -1.83210946      0.64401119
H      -4.69980171      0.44572228      1.59809495
H      -2.61244955      1.72520301      1.27610402
