22
CCCCCCC=O
C       3.53538390      0.11449925     -0.13037463
C       2.18615243     -0.57768252     -0.02106352
C       1.03619550      0.38949411     -0.30124396
C      -0.31969185     -0.31079472     -0.19022219
C      -1.47029112      0.65958659     -0.47514848
C      -2.83651524     -0.01594529     -0.39339199
C      -3.29541589     -0.30478905      1.01701030
O      -2.69829311      0.03372593      2.03299973
H       4.34314228     -0.59526866      0.07375014
H       3.68701145      0.52201839     -1.13500013
H       3.61457779      0.93550253      0.58936019
H       2.07993980     -1.00146796      0.98433800
H       2.15187147     -1.41265941     -0.73052432
H       1.14978709      0.81378003     -1.30629379
H       1.07735552      1.22456486      0.40871043
H      -0.35995806     -1.14475178     -0.90157007
H      -0.42626829     -0.73860941      0.81310227
H      -1.34526868      1.06706032     -1.48596639
H      -1.42368472      1.50730866      0.21902275
H      -2.83812123     -0.95832689     -0.95124291
H      -3.59322845      0.63874882     -0.83994136
H      -4.25468057     -0.84599378      1.08968829
