27
O=[N+]([O-])c1ccc(O)c([N+](=O)[O-])c1-c1ccccc1
O      -0.10505448      3.32493879     -0.33759726
N      -0.13585320      2.38014683     -1.13568565
O       0.47042002      2.30604208     -2.21138614
C      -1.00908418      1.27256982     -0.80080942
C      -2.35006037      1.38617275     -1.19845177
C      -3.22523774      0.33536866     -0.94059786
C      -2.76392788     -0.80532552     -0.28704754
O      -3.69295373     -1.79424887     -0.10730329
C      -1.42360094     -0.88260779      0.13771285
N      -1.02315576     -2.05921323      0.89171149
O      -1.33905167     -3.15679738      0.40632903
O      -0.47340729     -1.89096246      1.98582863
C      -0.49438363      0.14672115     -0.12716590
C       0.93128871      0.04857097      0.22436269
C       1.81347476     -0.69206936     -0.57875171
C       3.16859490     -0.77939270     -0.25370555
C       3.65884141     -0.12759224      0.87530557
C       2.79652900      0.61300174      1.68013215
C       1.44116415      0.70205688      1.35711811
H      -2.70736437      2.27488436     -1.71579129
H      -4.26519587      0.39901271     -1.25560868
H      -3.25368011     -2.65533169      0.05332076
H       1.45847788     -1.20197699     -1.47252627
H       3.84343850     -1.35370733     -0.88373821
H       4.71404163     -0.19561087      1.12799739
H       3.17878082      1.12156581      2.56185056
H       0.78695943      1.28378390      2.00449731
