22
O=C(O)CC1(CC(=O)O)OCOC1=O
O       1.66165869     -2.41558685     -0.83658810
C       2.00396957     -1.25130651     -0.72781197
O       3.17052772     -0.91478023     -0.15183582
C       1.21716293     -0.05683624     -1.17695126
C       0.02121659      0.24391150     -0.27249140
C      -1.08103347     -0.81241790     -0.36750289
C      -2.23431242     -0.55358176      0.56455288
O      -2.40624224      0.40953415      1.29030396
O      -3.14407839     -1.54691820      0.52011159
O      -0.49829586      1.51401259     -0.69830748
C      -0.19007922      2.43962496      0.33809055
O       0.43247682      1.80230280      1.43240759
C       0.48146615      0.47991701      1.14856785
O       0.87326908     -0.37730530      1.92512117
H       3.54574246     -1.76266327      0.16963027
H       0.89756129     -0.22306844     -2.21311230
H       1.88984239      0.81016856     -1.22805657
H      -0.68974648     -1.80263905     -0.11293883
H      -1.48736112     -0.83380401     -1.38550701
H      -3.83184240     -1.28085194      1.16635399
H      -1.11240433      2.92599642      0.67027330
H       0.48050223      3.20629171     -0.06236688
