54
CCOc1ccc(C2(C(=O)OC(C#N)c3cccc(Oc4ccccc4)c3)CC2(Cl)Cl)cc1
C       4.50727004      4.99134919      1.58297056
C       4.39514176      3.47938734      1.65718391
O       3.44091502      3.06041288      0.68478095
C       3.19153613      1.72037334      0.59265909
C       2.24979450      1.36463854     -0.37182218
C       1.90032083      0.02529883     -0.56882064
C       2.48995498     -1.00361474      0.18527943
C       2.08400228     -2.46716264      0.00073923
C       0.88507699     -2.87991398      0.79270856
O       0.96351406     -3.59823956      1.77734592
O      -0.25708025     -2.36534293      0.27754372
C      -1.45629836     -2.72823046      0.99084488
C      -1.61818444     -1.92107686      2.22139422
N      -1.74516771     -1.28570100      3.18643939
C      -2.61960801     -2.51138285      0.03516307
C      -3.63825198     -3.47243594     -0.08064201
C      -4.71440365     -3.26724927     -0.94816157
C      -4.79359753     -2.09626407     -1.70087821
C      -3.80432584     -1.12233244     -1.57786972
O      -3.93257256     -0.00220774     -2.36992180
C      -3.61094617      1.21060204     -1.80153581
C      -4.15330439      1.63311165     -0.58486577
C      -3.80320592      2.88051710     -0.06676782
C      -2.92692127      3.70844734     -0.77183004
C      -2.40882399      3.29515185     -2.00037129
C      -2.75630077      2.04686615     -2.52027167
C      -2.71308532     -1.33416514     -0.72971056
C       3.20734314     -3.49428269     -0.15296175
C       2.32040055     -3.19362729     -1.32072736
Cl      1.22064786     -4.47968596     -1.83779660
Cl      3.07684095     -2.38057792     -2.69408891
C       3.42701090     -0.62117577      1.16179038
C       3.77930469      0.71991139      1.36142883
H       5.20925505      5.36891730      2.33178004
H       4.84666118      5.30515483      0.58993491
H       3.53088619      5.45886761      1.74955966
H       4.06598618      3.19262182      2.66197508
H       5.37377135      3.03747681      1.43864508
H       1.77776111      2.13671407     -0.97483503
H       1.15007208     -0.20808654     -1.32198212
H      -1.41267250     -3.79511572      1.24367086
H      -3.60429567     -4.39247189      0.49997789
H      -5.49539124     -4.01961698     -1.03741534
H      -5.63157856     -1.93668599     -2.37627719
H      -4.84289974      0.99714103     -0.03596153
H      -4.21247712      3.20553778      0.88716318
H      -2.65175644      4.67858568     -0.36537481
H      -1.73248417      3.94318090     -2.55124401
H      -2.35701481      1.72609601     -3.47896171
H      -1.93148587     -0.57951495     -0.66270144
H       3.09965941     -4.44817247      0.35352118
H       4.23392351     -3.14987724     -0.19365842
H       3.88888701     -1.37762107      1.79551001
H       4.50819652      0.94547067      2.13236948
