41
CC(Oc1ccc(Oc2ncc(Cl)cc2Cl)cc1)C(=O)N1CCCO1
C      -2.83155882     -1.64452601     -2.42045191
C      -2.06640046     -0.82144537     -1.38430243
O      -0.84550051     -0.42450494     -2.00827957
C       0.17332139      0.02780639     -1.21635373
C       1.33372712      0.37682950     -1.91554476
C       2.45962884      0.85233394     -1.24042326
C       2.43029323      0.96455918      0.14836409
O       3.48846733      1.48142378      0.85389440
C       4.68985717      0.78322269      0.79638031
N       4.67538524     -0.53584961      0.46864377
C       5.86798218     -1.17683341      0.46189908
C       7.07250246     -0.56537869      0.77709940
Cl      8.54217009     -1.45063960      0.74554630
C       7.06691682      0.78123030      1.12295203
C       5.85524672      1.47084462      1.13870613
Cl      5.85033552      3.13808999      1.57393085
C       1.27164167      0.64393966      0.85313177
C       0.14550872      0.16777988      0.17262954
C      -2.95193303      0.37041024     -0.96726019
O      -2.91998879      1.45675817     -1.55027558
N      -3.77030162      0.16020671      0.12221303
C      -4.88787018      1.03007608      0.42211201
C      -5.65288210      0.27012274      1.46625667
C      -5.44540243     -1.14636914      0.98592228
O      -4.11027611     -1.17894389      0.45213909
H      -2.23226631     -2.50204628     -2.74531543
H      -3.03966661     -1.04671534     -3.31551528
H      -3.78519868     -2.01303883     -2.03151647
H      -1.85364878     -1.47539433     -0.53063454
H       1.35695006      0.28251478     -2.99843984
H       3.34659272      1.13012604     -1.80066369
H       5.82142572     -2.22763232      0.18874853
H       7.99278176      1.28780571      1.37914573
H       1.24356474      0.76010258      1.93278917
H      -0.73115700     -0.07564744      0.76211823
H      -5.47671731      1.17273383     -0.49158306
H      -4.52610354      2.00493223      0.76098152
H      -5.17778878      0.40264211      2.44561063
H      -6.70389883      0.55732199      1.54644721
H      -6.14141930     -1.41181805      0.18290166
H      -5.53432030     -1.87702991      1.79441441
