14
O=C(O)CC(Br)C(=O)O
O       1.43352312      1.36954427     -0.37740330
C       1.50612119      0.17688843     -0.13716384
O       2.59889845     -0.53123604     -0.47815828
C       0.48154065     -0.66601264      0.56158449
C      -0.78155889      0.14526698      0.79688688
Br     -2.00021438     -0.90573079      1.91800421
C      -1.56788264      0.49362469     -0.44863624
O      -2.50445824      1.27638033     -0.50927095
O      -1.18564551     -0.16708643     -1.55964059
H       3.18831449      0.11686674     -0.91880026
H       0.28215837     -1.55743701     -0.04423577
H       0.91443861     -0.98762090      1.51618477
H      -0.56831642      1.06785779      1.34665397
H      -1.79691882      0.16869456     -2.25084344
