59
C[C@@H](NC(=O)[C@H]1CCCN1)c1ccc(Nc2ncc3cc(-c4ccncc4)ccc3n2)cc1
C      -4.48521072      3.24110084      0.15696388
C      -4.39654908      1.80910080      0.69105207
N      -5.08786430      0.88139317     -0.18630854
C      -6.45914261      0.77095691     -0.20537927
O      -7.19751206      1.43567100      0.51968942
C      -6.99156841     -0.24322394     -1.24089467
C      -6.52818640     -1.67018041     -0.94867949
C      -7.80712787     -2.46853847     -0.75859681
C      -8.82707663     -1.42285840     -0.36517692
N      -8.47221641     -0.28772454     -1.21266325
C      -2.97537072      1.31750898      0.90033478
C      -1.93277276      1.62573250      0.01934720
C      -0.63929601      1.12807351      0.23054119
C      -0.34469787      0.29936019      1.31398438
N       0.92718923     -0.21502289      1.58084962
C       2.17200848     -0.09079571      0.97235806
N       2.35525736      0.66166500     -0.11925545
C       3.60063254      0.72043575     -0.62299858
C       4.68395855      0.05465544     -0.08084240
C       5.99176021      0.12114192     -0.60736413
C       7.04275828     -0.58488692     -0.00810201
C       8.40931962     -0.51917446     -0.54539582
C       9.05391817      0.70788417     -0.73340759
C      10.34544392      0.71947595     -1.23795579
N      11.03208085     -0.39263108     -1.56859882
C      10.39985152     -1.56812279     -1.38508088
C       9.11203211     -1.68101478     -0.88410009
C       6.74348327     -1.35401302      1.12273640
C       5.43916379     -1.40639052      1.63508190
C       4.39428514     -0.70733795      1.04778103
N       3.16125193     -0.78022045      1.56760733
C      -1.39761552     -0.02152893      2.18386617
C      -2.69228675      0.47093589      1.97974259
H      -5.52466801      3.58905372      0.14586992
H      -4.11739966      3.31739188     -0.87207236
H      -3.90766253      3.93144300      0.78085043
H      -4.91301705      1.80278201      1.65918717
H      -4.53798053      0.37921450     -0.87114299
H      -6.66347059      0.08878370     -2.23198115
H      -5.94200290     -2.08202646     -1.77602619
H      -5.91369623     -1.73041561     -0.04282696
H      -8.09305466     -2.94311854     -1.70425005
H      -7.69953273     -3.25343670     -0.00625500
H      -8.73149821     -1.16263176      0.69332393
H      -9.85081321     -1.75511977     -0.55179728
H      -8.81299076      0.57779975     -0.78101881
H      -2.10028344      2.25838756     -0.84804416
H       0.13157927      1.40946424     -0.48050892
H       1.01462979     -0.83016449      2.37619914
H       3.70030348      1.34245197     -1.50674800
H       6.18118205      0.71943973     -1.49689239
H       8.56985266      1.64493070     -0.47867580
H      10.87774489      1.65294952     -1.39001781
H      10.97188927     -2.44945941     -1.66120431
H       8.66491678     -2.66275257     -0.77325926
H       7.52708924     -1.91329952      1.63069281
H       5.23914908     -2.00729910      2.51889418
H      -1.22018923     -0.66396481      3.04257773
H      -3.47997759      0.18816973      2.67573318
