38
CCCCC(CC)COCCCN
C      -3.41486039      2.07424835      1.01739528
C      -3.66670072      1.09922169     -0.12243322
C      -2.40651396      0.36423331     -0.58956873
C      -1.83419698     -0.58205830      0.47170298
C      -0.62029088     -1.42336973      0.00965114
C      -0.92068322     -2.38073113     -1.16036017
C      -2.05920171     -3.35242449     -0.88605092
C       0.59955330     -0.55131234     -0.34339550
O       0.92884784      0.27917153      0.76926942
C       1.96263206      1.22294163      0.49165248
C       3.34261517      0.56973728      0.48666134
C       4.44438942      1.61843475      0.37176915
N       5.75431838      0.97875088      0.32705583
H      -2.62664803      2.78790653      0.75765815
H      -3.12326041      1.55396044      1.93425870
H      -4.32624566      2.64055143      1.23476618
H      -4.07644168      1.65784992     -0.97254221
H      -4.43229992      0.37466904      0.17842945
H      -1.65233443      1.10158474     -0.88619739
H      -2.66816368     -0.20462667     -1.48838274
H      -2.62716567     -1.25466616      0.82007186
H      -1.53762621     -0.00121535      1.35299656
H      -0.33524000     -2.03523023      0.87748633
H      -1.13984656     -1.81633014     -2.07401468
H      -0.01891507     -2.96898327     -1.37345397
H      -3.02069581     -2.83569303     -0.81550196
H      -2.13605848     -4.07893160     -1.70153233
H      -1.89021356     -3.90433177      0.04383324
H       0.39151991      0.06707402     -1.22386852
H       1.45175600     -1.19984464     -0.57339277
H       1.91901530      1.97272225      1.28930276
H       1.75933717      1.74342656     -0.45164189
H       3.41594244     -0.13950007     -0.34623406
H       3.46722031     -0.02251793      1.40213604
H       4.40538159      2.30438157      1.22511024
H       4.30745858      2.21101565     -0.53913194
H       5.90221388      0.43667344      1.17811941
H       6.48140168      1.69321186      0.31544182
