11
ClC(Cl)C(Cl)C(Cl)Cl
Cl     -2.36308336      0.99011116      1.27205963
C      -1.25457299     -0.08817391      0.36691774
Cl     -2.00876412     -0.53185937     -1.19083870
C       0.14897582      0.52763694      0.20907478
Cl      0.07336060      2.09777168     -0.69863842
C       1.14902448     -0.42010821     -0.47597350
Cl      1.24357531     -2.00961346      0.34889338
Cl      2.81232473      0.25982416     -0.47765127
H      -1.21437347     -1.00344516      0.96124384
H       0.52709369      0.78991046      1.20504309
H       0.88643933     -0.61205428     -1.52013057
