20
O=CCc1ccc2c(c1)OCO2
O      -4.20845511     -0.95627080     -0.71414441
C      -3.23437406     -0.76320218      0.00854515
C      -2.48018075      0.53967028      0.05243975
C      -0.99547010      0.33135159     -0.10602967
C      -0.45529462      0.04904901     -1.38251663
C       0.91612126     -0.16573479     -1.55219337
C       1.71882159     -0.09547955     -0.43529525
C       1.20303966      0.17488440      0.80964270
C      -0.14468153      0.39108457      1.00942383
O       2.16083211      0.19677013      1.77482864
C       3.34028791     -0.08514370      0.99228671
O       3.06597397     -0.27682182     -0.41098799
H      -2.89549768     -1.54030670      0.71548589
H      -2.70240646      1.02358027      1.01000760
H      -2.84990412      1.20129391     -0.73904391
H      -1.10879951     -0.00346325     -2.25286597
H       1.33520176     -0.38088082     -2.52876309
H      -0.51849133      0.60293356      2.00575568
H       3.81181672     -0.99357915      1.38451983
H       4.04146030      0.75026504      1.10177791
