24
N#Cc1c[nH]cc1-c1cccc2c1OC(F)(F)O2
N       1.21048530      2.11973265      2.68303664
C       1.58169156      1.52167531      1.75975647
C       2.05340222      0.77810153      0.63130161
C       3.33771793      0.84629691      0.12882134
N       3.42462502     -0.01635742     -0.93254387
C       2.21679501     -0.64149328     -1.11111263
C       1.33423704     -0.16464179     -0.15835470
C      -0.04526295     -0.60817089     -0.07202326
C      -0.35680314     -1.97583118     -0.00023138
C      -1.69231440     -2.41000555      0.09039523
C      -2.73785311     -1.48598738      0.10737761
C      -2.41232560     -0.14800784      0.03177039
C      -1.10535023      0.28562239     -0.05431144
O      -1.02593727      1.64461795     -0.13346394
C      -2.41499088      1.98880768     -0.08863284
F      -2.62529899      2.82117761      0.95934937
F      -2.72438706      2.66961746     -1.22027232
O      -3.30866364      0.87499425      0.02640751
H       4.19449397      1.43231282      0.43620009
H       4.25141165     -0.16918424     -1.49755638
H       2.08733082     -1.36029341     -1.91039761
H       0.43774791     -2.71998034     -0.00236416
H      -1.90938080     -3.47445781      0.15027924
H      -3.77137036     -1.80854543      0.17656905
