17
NC(=O)C[C@H](N)C(=O)O
N      -2.22955792      0.20899229      1.00326915
C      -1.81122828      0.42716298     -0.27346581
O      -2.37344872      1.24256893     -0.99599244
C      -0.61773261     -0.37823243     -0.73219659
C       0.67278513      0.25776438     -0.22226857
N       1.83458768     -0.06590170     -1.11450437
C       0.97968128     -0.31968015      1.17019354
O       0.28810928     -0.14881467      2.16336181
O       2.09075359     -1.09791443      1.15810935
H      -2.95694377      0.82596544      1.34342971
H      -1.58038226     -0.13202594      1.71284217
H      -0.73140328     -1.41769073     -0.40134364
H      -0.65128579     -0.38780496     -1.82891332
H       0.59991940      1.34780697     -0.14027333
H       2.54302087      0.66548343     -0.97497025
H       1.53650035      0.07575965     -2.08594672
H       2.40662505     -1.10343907      0.21866929
