22
CC(=O)N1C[C@@H](O)C[C@H]1C(=O)[O-]
C       2.72747864     -0.20952796     -0.36315359
C       1.55948267     -1.15667136     -0.26974995
O       1.74441538     -2.37467828     -0.20797397
N       0.30245569     -0.60342716     -0.27219733
C      -0.88082730     -1.41982263     -0.06354088
C      -2.04681571     -0.43964332      0.07400772
O      -2.38001527     -0.20065978      1.43886559
C      -1.54864341      0.83212500     -0.61312032
C      -0.03711559      0.83333355     -0.35578808
C       0.28394399      1.66204193      0.92326285
O       1.15244500      2.56636083      0.76827423
O      -0.36033246      1.32737203      1.96193996
H       3.64275755     -0.78509318     -0.53368391
H       2.60797767      0.47946684     -1.20205943
H       2.83779538      0.33940278      0.57453739
H      -0.99728287     -2.04925365     -0.95257009
H      -0.74618713     -2.05629948      0.81675518
H      -2.95007375     -0.83060376     -0.40378173
H      -1.63061872      0.32717719      1.83077303
H      -1.72438104      0.74780972     -1.69278997
H      -2.04663254      1.73633607     -0.24886711
H       0.49017382      1.27425462     -1.20913960
