22
COc1cc([N+](=O)[O-])c(OC)cc1Cl
C       3.77695813     -0.02022476     -0.17617797
O       2.81040899      0.52475610      0.71341493
C       1.48711782      0.31777283      0.42926022
C       1.01797596     -0.42818693     -0.65102925
C      -0.36668037     -0.57199510     -0.83534100
N      -0.80888062     -1.36710778     -1.96388703
O      -1.38797347     -2.43336375     -1.71811514
O      -0.51257105     -0.94648111     -3.09098971
C      -1.31038337      0.01282913      0.01748774
O      -2.63144885     -0.16186386     -0.28289470
C      -3.59473255      0.33329273      0.64050217
C      -0.83073116      0.75614822      1.09666822
C       0.55091828      0.90374667      1.30076742
Cl      1.06196044      1.84236898      2.66303001
H       3.66623333      0.39648275     -1.18264264
H       3.72439380     -1.11370075     -0.19181424
H       4.76771368      0.26053588      0.19378176
H       1.69309359     -0.90516719     -1.35506332
H      -3.55775460      1.42601160      0.69635086
H      -4.58587660      0.05143798      0.27246875
H      -3.46422600     -0.11903398      1.62913512
H      -1.50551536      1.24174236      1.79508780
