25
Nc1ccc2cc(S(=O)(=O)O)cc(O)c2c1
N      -4.27575914      1.02329757      0.01574828
C      -2.93773875      0.73077054     -0.27425681
C      -2.32128544      1.29619228     -1.38839787
C      -0.95672331      1.10637946     -1.62190503
C      -0.16906320      0.37899266     -0.71832116
C       1.20123610      0.18801507     -0.95001679
C       1.97200047     -0.52583867     -0.02933376
S       3.70539007     -0.73837379     -0.30673083
O       3.93894961     -2.14182945     -0.55603248
O       4.15532068      0.29336434     -1.21581968
O       4.38209536     -0.36394546      1.10984339
C       1.40686849     -1.05511656      1.13042103
C       0.04626677     -0.86759737      1.35929161
O      -0.52317647     -1.38857819      2.49256271
C      -0.76440762     -0.15422846      0.44953596
C      -2.14477135      0.05577764      0.65809992
H      -4.71159506      0.35351022      0.64253267
H      -4.84317672      1.20895353     -0.80496207
H      -2.89913750      1.89215755     -2.08977906
H      -0.51426360      1.54634652     -2.51312432
H       1.66576524      0.59808112     -1.84537761
H       5.01627831      0.36649928      0.94530510
H       2.02582156     -1.60600759      1.83298598
H       0.14923622     -1.87373522      2.99828005
H      -2.60413072     -0.32308700      1.56895261
