25
CCC(CC)(C(N)=O)C(N)=O
C      -2.23574265     -0.59812378     -1.10339344
C      -0.75792821     -0.96645875     -1.00934312
C       0.06893427     -0.17917995      0.05037523
C       1.55756650     -0.62496688     -0.08747448
C       2.52234848      0.10083499      0.84805189
C      -0.03444374      1.32863800     -0.22291680
N       0.39813091      1.77396650     -1.43945059
O      -0.49554138      2.14085621      0.57689520
C      -0.43396355     -0.59994732      1.44479272
N      -1.49237345      0.08080079      1.97125220
O       0.00337123     -1.57538956      2.05350889
H      -2.70260021     -1.15519809     -1.92276544
H      -2.37839357      0.46716500     -1.30548127
H      -2.77581220     -0.85660631     -0.18878305
H      -0.31695732     -0.82700255     -2.00467813
H      -0.69251832     -2.04203298     -0.79700773
H       1.64403709     -1.70316319      0.10112622
H       1.90819046     -0.47429640     -1.11612514
H       2.25277326     -0.04004024      1.89859559
H       2.55215576      1.17468031      0.64122803
H       3.53607024     -0.28961318      0.71016914
H       0.34673261      2.76899470     -1.61927175
H       0.82478021      1.18383260     -2.13959924
H      -1.71892283     -0.15625285      2.92869859
H      -1.57989360      1.06850292      1.73159647
