52
CNC(=O)c1cccc(NCC(=O)NCCc2ccc(OC)c(OC)c2)c1
C      -8.39236019      3.51160617      1.17491219
N      -7.71282024      2.47058094      0.44525781
C      -6.72929085      1.71845187      1.05614058
O      -6.42684666      1.83169378      2.23852090
C      -5.99487246      0.75987696      0.18491262
C      -6.59256111      0.17462600     -0.93499580
C      -5.85488045     -0.70051445     -1.72729829
C      -4.53369085     -1.00496328     -1.38738895
C      -3.93101080     -0.47697772     -0.23490446
N      -2.58260459     -0.78014058      0.00472696
C      -2.05091739     -0.60313863      1.37404485
C      -0.56104396     -0.97656008      1.42155261
O       0.01669889     -1.28294696      2.46013618
N       0.07043493     -0.89264640      0.19612469
C       1.49467857     -1.09931124      0.03956478
C       2.30739365      0.12459915      0.46809197
C       3.78736817     -0.09141285      0.27044062
C       4.54033704     -0.73903609      1.25420275
C       5.90634207     -0.96407061      1.06864980
C       6.54018312     -0.54625136     -0.10578672
O       7.87503843     -0.72674088     -0.37378597
C       8.66682395     -1.35527436      0.62351007
C       5.78996804      0.10592067     -1.10490187
O       6.48294331      0.48099462     -2.23011940
C       5.78211691      1.21437475     -3.22326125
C       4.41983982      0.32474671     -0.91033659
C      -4.67151259      0.43384053      0.52567844
H      -9.28959354      3.79582498      0.62052907
H      -8.66606332      3.15812783      2.17270973
H      -7.72323627      4.37150214      1.26402264
H      -7.72452837      2.52095911     -0.56412112
H      -7.62802326      0.37667860     -1.19220159
H      -6.30400952     -1.14987940     -2.60951900
H      -3.97332634     -1.67604766     -2.03509472
H      -2.36554093     -1.71668431     -0.33939370
H      -2.11829512      0.44170259      1.69375473
H      -2.58904537     -1.25298633      2.07233470
H      -0.47555990     -0.48184149     -0.55786417
H       1.66986863     -1.33199209     -1.01657948
H       1.78362602     -1.97791597      0.62827877
H       2.11352743      0.36734022      1.52068659
H       1.98228705      1.00682911     -0.09857057
H       4.06634075     -1.07528540      2.17517142
H       6.44622007     -1.47053051      1.86140196
H       8.67588324     -0.76999559      1.54895825
H       9.69508314     -1.40426452      0.25230569
H       8.33098130     -2.38135522      0.80596806
H       6.49156543      1.46302896     -4.01851580
H       4.98371911      0.61146352     -3.66808184
H       5.39184292      2.15505200     -2.82079816
H       3.82037124      0.81820431     -1.66820974
H      -4.23984914      0.91471602      1.39913973
