29
COc1ccc(C(=O)c2ccccc2)c(O)c1
C       5.22580710      0.55895433      0.47798046
O       4.07191945      0.58190912      1.31025222
C       2.88836409      0.21427384      0.73210819
C       1.78632317      0.24361496      1.59203483
C       0.51030657     -0.10305722      1.13618933
C       0.32280863     -0.47295326     -0.19997694
C      -1.01831800     -0.83964645     -0.72483270
O      -1.08437240     -1.59093179     -1.69794749
C      -2.27149188     -0.31814675     -0.13249066
C      -2.39591946      1.02295078      0.24899631
C      -3.59900755      1.48129342      0.78891895
C      -4.67783972      0.60827739      0.93438549
C      -4.56212158     -0.72249829      0.53195821
C      -3.36208024     -1.18575227     -0.00850782
C       1.43771445     -0.53224343     -1.04868983
O       1.35320610     -0.93505088     -2.35688387
C       2.70969279     -0.17966892     -0.59314396
H       6.08020860      0.87714632      1.08310998
H       5.43209771     -0.45418106      0.11732392
H       5.12633426      1.26364108     -0.35425036
H       1.92646325      0.53437797      2.63124828
H      -0.31413033     -0.09093542      1.84395994
H      -1.57522284      1.72320522      0.11543474
H      -3.70032149      2.52228686      1.08677676
H      -5.61571259      0.96884765      1.35066348
H      -5.40876818     -1.39733919      0.63208468
H      -3.27906483     -2.22082141     -0.33347360
H       0.45848325     -1.32422968     -2.49035280
H       3.53464168     -0.23332290     -1.29528369
