22
O=C(O)C(S)CCC(S)C(=O)O
O      -3.31866143      0.38082886     -0.64178274
C      -2.40437531     -0.19126859     -1.21499594
O      -2.11997593      0.10042304     -2.50044861
C      -1.45618404     -1.21619331     -0.61906176
S      -2.44505359     -2.48072487      0.26709450
C      -0.47349530     -0.55646276      0.35645285
C       0.51336413      0.38610321     -0.35587592
C       1.54311044      0.98291686      0.61539268
S       2.48525159      2.30995733     -0.22361644
C       2.52781981     -0.06290253      1.11024180
O       2.87302664     -1.08086730      0.53158100
O       3.03412950      0.23043052      2.32691728
H      -2.80578425      0.75115566     -2.76196283
H      -0.91811762     -1.73418414     -1.41986203
H      -3.22541468     -1.61175985      0.93188942
H       0.09465704     -1.33417669      0.88161441
H      -1.01792538      0.01671921      1.11865873
H       1.01754598     -0.16395883     -1.16107409
H      -0.05889867      1.19581746     -0.82569451
H       1.02367711      1.41775427      1.47661826
H       1.45345176      3.14946794     -0.39071302
H       3.67785220     -0.48907549      2.49862697
