13
OCCCO
O      -1.52115912      1.19759894      0.26987070
C      -1.39538077     -0.19588880      0.01724742
C      -0.10743022     -0.50409856     -0.74103788
C       1.13832573     -0.27000496      0.10771266
O       1.17280537      1.07929511      0.56147455
H      -0.62444595      1.51537855      0.51239860
H      -2.26277576     -0.50390489     -0.57441196
H      -1.42945305     -0.72821284      0.97312804
H      -0.12003311     -1.54504420     -1.08116636
H      -0.05717230      0.14583752     -1.62294901
H       2.03829193     -0.46181288     -0.48503445
H       1.14397068     -0.92990757      0.98103443
H       2.02445657      1.20076459      1.01950301
