45
COc1ccc2c(c1)c(CC(=O)O)c(C)n2C(=O)C=Cc1ccccc1
C      -5.74913280      3.61502962     -0.91918413
O      -5.35375659      2.25302216     -1.02346653
C      -4.08571514      1.94443571     -0.60995055
C      -3.13983069      2.84346944     -0.13407114
C      -1.86708638      2.40882540      0.25891540
C      -1.55379116      1.03751122      0.17626545
C      -2.48864492      0.12030931     -0.30228363
C      -3.76289901      0.58575519     -0.69689977
C      -1.89292951     -1.17202836     -0.25508800
C      -2.56318906     -2.45475208     -0.65433247
C      -3.36148798     -3.07469962      0.46834494
O      -3.21229732     -2.93185075      1.67044055
O      -4.30535354     -3.92549538      0.00753379
C      -0.61945640     -1.02064142      0.27929584
C       0.30929051     -2.10911837      0.71356754
N      -0.36396525      0.34825672      0.44850249
C       0.84514277      0.97630601      0.84056305
O       0.82653877      2.04974095      1.43087171
C       2.09764307      0.31438318      0.40213997
C       3.25915671      0.66025761      0.97808923
C       4.56009349      0.09909215      0.59193538
C       5.68500485      0.93383927      0.60427831
C       6.94559362      0.43455022      0.26768079
C       7.09585831     -0.90765800     -0.07331613
C       5.98770867     -1.75207194     -0.07283874
C       4.72633182     -1.25295418      0.26301834
H      -5.13411713      4.25438253     -1.56104713
H      -6.78343617      3.69021634     -1.26851280
H      -5.72381006      3.95589053      0.12116936
H      -3.35074107      3.90504365     -0.05381971
H      -1.14344103      3.13488938      0.62066857
H      -4.50982429     -0.11218248     -1.06526866
H      -1.82044437     -3.18752211     -0.98841676
H      -3.23627251     -2.26010761     -1.49763805
H      -4.73684024     -4.25459189      0.82461923
H       0.98618087     -2.38867171     -0.09893675
H       0.89111079     -1.82161537      1.59415722
H      -0.25234631     -3.00632328      0.99501794
H       2.04953130     -0.39113627     -0.41628104
H       3.28141435      1.41537537      1.76306404
H       5.58884990      1.98500452      0.86863745
H       7.80939925      1.09438457      0.27409184
H       8.07708590     -1.29645469     -0.33315934
H       6.10600240     -2.80214075     -0.32766632
H       3.88287157     -1.93795479      0.27633918
