17
O=C(O)c1c(O)cccc1O
O      -2.72150834      0.17566661      0.70447437
C      -1.75638467      0.75205538      0.23138074
O      -1.84271336      2.02919869     -0.19078016
C      -0.41491575      0.15034236      0.06420949
C       0.67220911      0.84722822     -0.48534009
O       0.60712609      2.14438564     -0.92047593
C       1.91765008      0.23165859     -0.62064351
C       2.09423927     -1.08838807     -0.20888606
C       1.02451687     -1.79398403      0.33881075
C      -0.22077021     -1.17947706      0.47444247
O      -1.20735728     -1.95802950      1.02424720
H      -2.78001182      2.26960954     -0.01104843
H      -0.30792458      2.46422609     -0.77477194
H       2.75096538      0.78403202     -1.04824872
H       3.06472560     -1.56667268     -0.31480322
H       1.15845314     -2.82373307      0.66109103
H      -2.03829953     -1.43811876      1.07634199
