15
O=C(O)CC(S)C(=O)O
O       1.05588021      1.52952963      1.47226381
C       1.31763523      0.56196921      0.77889752
O       2.43008292      0.52898871      0.02444844
C       0.48647004     -0.67868405      0.64675697
C      -0.23701301     -0.67345311     -0.68946489
S      -1.03612440     -2.30143291     -0.97012264
C      -1.29946907      0.41017659     -0.69241647
O      -2.42682974      0.33654610     -0.22990723
O      -0.86039663      1.56256615     -1.23822844
H       2.87154812      1.38776253      0.19934509
H       1.15501289     -1.54147717      0.75520710
H      -0.21212308     -0.70525278      1.49248585
H       0.44972442     -0.50912438     -1.52669210
H      -2.08036458     -2.09139655     -0.14940211
H      -1.61403330      2.18328205     -1.13721981
