23
O=C(Nc1ccccc1)Nc1cnns1
O       1.27647137      1.04138201      0.26016994
C       1.04306502     -0.10390819     -0.10538613
N      -0.21378494     -0.67732995     -0.21212009
C      -1.46214632     -0.08166466      0.06967493
C      -1.62278798      1.23071396      0.51721082
C      -2.89973295      1.74216064      0.77288997
C      -4.02674273      0.94661477      0.58354221
C      -3.87897183     -0.36328988      0.13769049
C      -2.60343938     -0.87423558     -0.11772729
N       2.02797924     -1.00706466     -0.47188918
C       3.36424216     -0.68336025     -0.45358068
C       4.10023801      0.43609487     -0.13025757
N       5.47503734      0.28987359     -0.27092949
N       5.79653567     -0.92243199     -0.69592708
S       4.45912723     -1.90236915     -0.93256622
H      -0.25151408     -1.63334775     -0.52777663
H      -0.77560134      1.88924734      0.67968510
H      -3.00851135      2.76647530      1.12108182
H      -5.01660357      1.34842754      0.78352017
H      -4.75592131     -0.98786892     -0.01149167
H      -2.51998335     -1.90049220     -0.46487076
H       1.78291356     -1.93891607     -0.76562774
H       3.71013153      1.38528921      0.21176173
