39
CC(=O)CC(c1ccccc1)c1c(O)c2ccccc2oc1=O
C      -1.56116650     -3.76469353     -0.81874809
C      -1.13768800     -2.47271071     -1.46393987
O      -0.22801669     -2.43102166     -2.29715120
C      -1.82679009     -1.20317405     -1.01638603
C      -1.19898949     -0.63235923      0.27049321
C      -1.99735218      0.59177460      0.72164285
C      -2.64850807      0.58794410      1.96501022
C      -3.37718876      1.70030700      2.38979760
C      -3.46093699      2.83132929      1.58104752
C      -2.81100680      2.85432572      0.34932499
C      -2.08094789      1.74384703     -0.07774220
C       0.30094270     -0.32994044      0.28275779
C       1.06852013      0.00455584     -0.76999690
O       0.57821368      0.10856119     -2.05298903
C       2.48455320      0.32990864     -0.61753991
C       3.30787563      0.71346663     -1.68322147
C       4.65606047      1.01917140     -1.46644354
C       5.19426517      0.94660848     -0.18157533
C       4.38504268      0.56917322      0.88689748
C       3.04384082      0.26755009      0.65191462
O       2.27156605     -0.11420324      1.75821452
C       0.93398382     -0.45810166      1.62982040
O       0.30794273     -0.88002684      2.59846820
H      -1.05785126     -4.60167239     -1.31073724
H      -1.28825677     -3.75762014      0.23881330
H      -2.64043811     -3.89515650     -0.92961794
H      -2.88739996     -1.43643174     -0.85348509
H      -1.81671716     -0.49179204     -1.84963103
H      -1.36785919     -1.42640229      1.01205532
H      -2.58048768     -0.27756033      2.62189329
H      -3.87239437      1.68609676      3.35730756
H      -4.02480101      3.69821740      1.91500226
H      -2.86613065      3.74041584     -0.27781336
H      -1.56960242      1.79113998     -1.03777487
H       0.54222262     -0.81085348     -2.40793351
H       2.90734019      0.78576310     -2.69201226
H       5.28386174      1.31746456     -2.30273398
H       6.24137704      1.18590973     -0.01474853
H       4.79292137      0.51018967      1.89176027
