24
OCCOCCOCCO
O       3.71388249     -0.71801346      1.71592426
C       3.91752367     -0.05169558      0.47019713
C       2.61395175      0.59439149      0.00737152
O       1.74725443     -0.42082660     -0.51264819
C       0.43919673      0.06444060     -0.80844156
C      -0.46533689      0.04353371      0.42606951
O      -1.78326066      0.51045443      0.12724000
C      -2.62707962     -0.51955620     -0.40557821
C      -4.00285515      0.08847226     -0.66010141
O      -4.54787410      0.57756071      0.56427494
H       4.49904248     -1.26929903      1.87301130
H       4.26884648     -0.78783609     -0.25979462
H       4.68662935      0.71068704      0.62403946
H       2.82210986      1.31058045     -0.79459459
H       2.13366993      1.10935851      0.84535289
H       0.02353697     -0.59402688     -1.57771037
H       0.47846781      1.06556633     -1.25499997
H      -0.05867589      0.71370640      1.19004655
H      -0.49192373     -0.95368931      0.88198344
H      -2.70760036     -1.32589032      0.33177141
H      -2.21214690     -0.90853139     -1.33985182
H      -3.93331803      0.93414039     -1.35141579
H      -4.68999945     -0.65528826     -1.07256131
H      -3.82404118      1.08576462      0.98041544
