38
CCCCCCCCOC(=O)c1cccnc1
C      -6.15173358      0.89360761     -1.34039358
C      -5.54948514      0.08819114     -0.20008682
C      -4.02636102      0.00961977     -0.31283789
C      -3.42687832     -0.79913747      0.83968452
C      -1.91349594     -1.00378944      0.71616393
C      -1.11641955      0.29909233      0.81898283
C       0.39374752      0.07571473      0.91724339
C       0.99971728     -0.55782672     -0.33216406
O       2.42414272     -0.67940985     -0.17467715
C       3.15480241      0.39665164     -0.55593861
O       2.71519827      1.44206499     -1.00739872
C       4.59810033      0.14774499     -0.34889128
C       5.52245870      1.14154002     -0.68295580
C       6.88269880      0.91016503     -0.48860621
C       7.27315118     -0.31182766      0.03525799
N       6.40852184     -1.29483643      0.36953553
C       5.08938056     -1.04324527      0.17008271
H      -7.24080244      0.93635769     -1.24036012
H      -5.77008114      1.91960797     -1.34045827
H      -5.91698345      0.43928781     -2.30828547
H      -5.97663567     -0.92134268     -0.20893132
H      -5.82871825      0.55066080      0.75379004
H      -3.75253627     -0.45313499     -1.26865699
H      -3.61471156      1.02512197     -0.31325904
H      -3.65519686     -0.30947588      1.79421040
H      -3.90338589     -1.78694115      0.87033463
H      -1.69643410     -1.50558725     -0.23368383
H      -1.59445149     -1.68380094      1.51562104
H      -1.44006589      0.84938808      1.71093882
H      -1.32679540      0.94032908     -0.04444366
H       0.62913312     -0.54468374      1.79101206
H       0.87981035      1.04084787      1.10598390
H       0.61811445     -1.57409283     -0.47138386
H       0.74991620      0.00701955     -1.23813565
H       5.18720114      2.09193904     -1.09255132
H       7.61934994      1.66547172     -0.73998970
H       8.32205974     -0.53946041      0.20506420
H       4.43366740     -1.86183111      0.45352842
