43
CCCCCCCCCCCCOS(=O)(=O)[O-].[Li+]
C      -6.55675872      1.07587988     -1.15626872
C      -6.11610861     -0.26765663     -0.59396889
C      -4.70323802     -0.24820797     -0.00590490
C      -3.61275572     -0.04533170     -1.06145345
C      -2.21679949     -0.11807511     -0.43662306
C      -1.12515924      0.04455248     -1.49755610
C       0.29077016     -0.12015489     -0.93643597
C       0.70195945      1.01479087      0.00706013
C       2.17376404      0.93939466      0.42872661
C       2.47816000     -0.26024950      1.33103009
C       3.90749535     -0.25435270      1.87630368
C       4.97002688     -0.47126671      0.80344821
O       6.23336507     -0.54147496      1.44073243
S       7.49925356     -1.02829604      0.53294103
O       7.47234927     -0.12835653     -0.61789518
O       7.18208117     -2.42055160      0.22252400
O       8.64236961     -0.84569483      1.42235183
Li      0.00000000      0.00000000      0.00000000
H      -7.59956607      1.02078671     -1.48618723
H      -6.48275606      1.86156057     -0.39729340
H      -5.95107370      1.37022654     -2.01816073
H      -6.81782504     -0.56086283      0.19642669
H      -6.18508604     -1.03216266     -1.37677821
H      -4.63256736      0.53460431      0.75919841
H      -4.53197881     -1.20522226      0.50368923
H      -3.73556573      0.92843917     -1.55001561
H      -3.70838836     -0.81420912     -1.83846659
H      -2.12362154      0.66623643      0.32254810
H      -2.09181632     -1.08147428      0.07233049
H      -1.22003077      1.02333253     -1.98410099
H      -1.27217121     -0.71185966     -2.27949019
H       0.36407466     -1.08716605     -0.42446682
H       0.99131966     -0.15319309     -1.78082780
H       0.06947928      1.01598358      0.90230814
H       0.53960450      1.97571933     -0.49803803
H       2.80412074      0.91355541     -0.46791096
H       2.42357509      1.86280998      0.96696085
H       1.78629056     -0.25032985      2.18274280
H       2.30411635     -1.19847087      0.79189895
H       4.00223804     -1.04644713      2.63026030
H       4.10772425      0.68266411      2.41062222
H       4.76479734     -1.40073180      0.26086256
H       4.97433178      0.36126218      0.09272072
