18
CSc1ncc2nccnc2n1
C       3.37066419      1.29715637     -0.30082180
S       3.23339945     -0.10690403      0.83288939
C       1.48629365     -0.41474451      0.75275503
N       1.02912877     -1.42632505      1.50095156
C      -0.29799279     -1.65581828      1.43649131
C      -1.18384004     -0.93632647      0.67250518
N      -2.51645560     -1.20589761      0.64010294
C      -3.25117749     -0.40912524     -0.15879467
C      -2.67478763      0.60759041     -0.88840732
N      -1.34687505      0.86634886     -0.84797241
C      -0.58268045      0.09603067     -0.06528872
N       0.72206600      0.35432665     -0.02890695
H       2.78258927      2.14657510      0.05789640
H       3.04383678      1.01913988     -1.30676129
H       4.41807587      1.60658569     -0.35594321
H      -0.65324364     -2.47969363      2.04912679
H      -4.31569387     -0.61022397     -0.19644231
H      -3.26330741      1.25130516     -1.53286956
