6
C=CCl
C      -0.44416353      0.58955562      0.06786909
C       0.47221047     -0.36554321     -0.08826663
Cl      0.11692540     -2.02956597      0.09773430
H      -0.18114098      1.63407662     -0.05827349
H      -1.47223141      0.35416638      0.32363829
H       1.50840005     -0.18268945     -0.34270155
