39
CCC1=C(C2(CC)C(=O)NC(=O)NC2=O)CCCC1
C       0.18452722      2.89847661     -1.35171805
C       0.12652844      1.42972752     -1.75316758
C       1.05725666      0.53631366     -0.95026916
C       0.68610836     -0.35564178      0.01404394
C      -0.76703603     -0.55531569      0.57012135
C      -0.86703809     -1.48556761      1.82887192
C      -2.26251929     -1.64155130      2.43709448
C      -1.30990237      0.79684540      1.03101306
O      -0.73086202      1.52085323      1.84204096
N      -2.53582674      1.17290856      0.55304775
C      -3.30059302      0.50343774     -0.34792153
O      -4.36759097      0.95744449     -0.74672928
N      -2.81605317     -0.68011001     -0.80569849
C      -1.59404690     -1.22780997     -0.52393210
O      -1.23992670     -2.24851910     -1.11515029
C       1.73686984     -1.28033286      0.62817699
C       3.08856447     -1.32549143     -0.07908683
C       3.53199323      0.07045945     -0.45424317
C       2.50833282      0.69657427     -1.39012898
H      -0.57090060      3.46591881     -1.90528302
H      -0.00680318      3.03640154     -0.28419638
H       1.15842893      3.34183024     -1.58008295
H       0.38423370      1.34193666     -2.81672297
H      -0.90662848      1.09054054     -1.69523852
H      -0.52731447     -2.49781458      1.57811813
H      -0.20602797     -1.11195452      2.62146383
H      -2.97282109     -2.06097750      1.71917519
H      -2.65569907     -0.69017473      2.80614639
H      -2.21622955     -2.32688552      3.29032848
H      -2.88945706      2.06327779      0.87428361
H      -3.35944136     -1.14170798     -1.52182610
H       1.90052215     -0.97127167      1.66788793
H       1.36698821     -2.31084175      0.63945384
H       3.01462221     -1.94661678     -0.98091805
H       3.83161814     -1.79892163      0.57258973
H       3.64052364      0.68452657      0.44856541
H       4.51265379      0.04031426     -0.94207647
H       2.76095064      1.75778481     -1.48954694
H       2.61199567      0.25193424     -2.38848612
