21
C=CC(C)C(=O)OCC
C      -3.26067369     -1.24516490     -0.31849189
C      -2.42508435     -0.23505550     -0.59564839
C      -1.21407990      0.12378996      0.23422666
C      -1.36368430      1.51866777      0.83265615
C       0.05499206      0.07416914     -0.61700598
O       0.10968748      0.24098908     -1.82875024
O       1.13898082     -0.14504871      0.18559623
C       2.38791467     -0.18990614     -0.51460050
C       3.48843650     -0.44374532      0.49700977
H      -4.10841151     -1.45429757     -0.96465596
H      -3.12345941     -1.88448576      0.54803620
H      -2.60822043      0.36889238     -1.48435245
H      -1.10261699     -0.61029775      1.04281067
H      -0.49754548      1.77105196      1.45437937
H      -1.43775789      2.28470905      0.05189505
H      -2.25886178      1.58508212      1.46053261
H       2.56331802      0.76675152     -1.01927880
H       2.36964584     -0.99981853     -1.25241975
H       4.46568448     -0.48625988      0.00808810
H       3.50576640      0.34704822      1.25428634
H       3.31596945     -1.38707112      1.02568681
