14
Clc1nc2ccccc2s1
Cl      4.42253912      0.13626755     -0.08461000
C       2.70697931      0.18084647     -0.04013300
N       1.97840840     -0.89939150     -0.15273617
C       0.64319685     -0.53810745     -0.07904963
C      -0.45624338     -1.41672640     -0.15907093
C      -1.75814038     -0.91305309     -0.06911062
C      -1.97697897      0.45079913      0.09903885
C      -0.90524411      1.34522947      0.18158440
C       0.39814160      0.82965238      0.09016565
S       1.90757246      1.66300207      0.15541579
H      -0.28268311     -2.48049791     -0.29028837
H      -2.60315933     -1.59515376     -0.13142870
H      -2.99559416      0.82800943      0.16740540
H      -1.07879429      2.40912360      0.31281733
