35
CC(C=O)Cc1ccc(C(C)(C)C)cc1
C       5.10565786      0.05709413      0.29106607
C       3.62394243      0.40059180      0.15298388
C       3.42066256      1.51998597     -0.85162720
O       4.28571271      1.92895111     -1.62043591
C       2.82178816     -0.83510505     -0.27633879
C       1.32778510     -0.63338736     -0.18918462
C       0.56215961     -0.46573799     -1.34485705
C      -0.81831034     -0.25914366     -1.25737654
C      -1.48159150     -0.21479414     -0.01638401
C      -3.00231317      0.01380075      0.03900302
C      -3.57846942      0.03990918      1.47285712
C      -3.34790129      1.36877788     -0.61580345
C      -3.72545443     -1.11774209     -0.72292329
C      -0.69757075     -0.39017954      1.13468590
C       0.68469333     -0.59666684      1.05086252
H       5.68652584      0.94206500      0.57317269
H       5.51804374     -0.32345349     -0.65006447
H       5.25793146     -0.70533877      1.06210992
H       3.27112498      0.77830726      1.12038525
H       2.41280219      1.97077618     -0.86087541
H       3.09466755     -1.12486255     -1.29988222
H       3.08291721     -1.69266390      0.35782120
H       1.02859027     -0.49352849     -2.32773630
H      -1.37380848     -0.13398007     -2.18473755
H      -3.13567339      0.84483056      2.07103297
H      -4.66226171      0.20706817      1.46015678
H      -3.40556982     -0.90856039      1.99465870
H      -4.42351754      1.57282450     -0.55802699
H      -2.82468829      2.19294584     -0.11651279
H      -3.07317499      1.39919502     -1.67585521
H      -3.45778553     -1.13935921     -1.78500484
H      -4.81385108     -0.99755999     -0.66941879
H      -3.47699402     -2.09882542     -0.30098813
H      -1.13851834     -0.37380003      2.12765211
H       1.25244907     -0.73243436      1.96921129
