24
CCCC1CCCC1
C       3.45054133     -0.37085152      0.31575291
C       2.07131430     -0.55675747     -0.29761367
C       0.96982744     -0.07801094      0.64971551
C      -0.43250277     -0.31493090      0.08643739
C      -0.74983947      0.48666730     -1.17543343
C      -2.27549685      0.53008268     -1.23858351
C      -2.77432212      0.18525894      0.16411861
C      -1.53222962      0.14027135      1.04352462
H       3.54701906     -0.94121528      1.24510834
H       4.22333238     -0.71793021     -0.37725809
H       3.64200298      0.68383160      0.53784140
H       1.92377393     -1.61671428     -0.53475068
H       2.02681937     -0.00245156     -1.24158613
H       1.06136485     -0.60715625      1.60669708
H       1.11290013      0.98836970      0.86550659
H      -0.56434725     -1.38507844     -0.12425453
H      -0.32261710      0.03376350     -2.07557605
H      -0.35668915      1.50774872     -1.09685376
H      -2.62252631      1.51901867     -1.55610787
H      -2.65661211     -0.19825864     -1.96309533
H      -3.26088196     -0.79723819      0.15060512
H      -3.50703548      0.91070120      0.53076387
H      -1.65536880     -0.54002868      1.89180301
H      -1.31842676      1.14090867      1.43896126
