15
O=[N+]([O-])c1ccc(O)cc1
O       3.30595246     -0.61765882     -0.37007766
N       2.58573461      0.17941033      0.24769593
O       3.00767264      1.07649914      0.99173120
C       1.13151113      0.05333590      0.08797928
C       0.60800348     -0.94632905     -0.74325944
C      -0.77574938     -1.05922205     -0.88950194
C      -1.61818290     -0.18208726     -0.21161586
O      -2.96066562     -0.33486955     -0.38856867
C      -1.10502596      0.81378086      0.61613761
C       0.27871392      0.93518456      0.76928122
H       1.25558606     -1.63763058     -1.27817948
H      -1.19765658     -1.82937637     -1.53063101
H      -3.42910191      0.33528975      0.13628487
H      -1.76098542      1.49872062      1.14555976
H       0.67419346      1.71495254      1.41716419
