23
CC(C)c1ccc(N)cc1
C      -2.18528662      1.57410444     -0.42265676
C      -1.77670389      0.29153712      0.30644007
C      -2.56576758     -0.90973649     -0.21987658
C      -0.28013183      0.05248230      0.22369443
C       0.37415652     -0.12027531     -1.00330304
C       1.75441150     -0.34377171     -1.05214718
C       2.51818454     -0.35799811      0.11531791
N       3.87558972     -0.69736999      0.06830601
C       1.86098579     -0.24900114      1.34117486
C       0.48104937     -0.02519084      1.39733392
H      -1.62718722      2.43621646     -0.04068012
H      -2.00280104      1.50927486     -1.50081969
H      -3.25240460      1.77509175     -0.27834888
H      -2.05133552      0.42195948      1.36170954
H      -3.64109241     -0.75563129     -0.07910105
H      -2.28592398     -1.82568595      0.31244119
H      -2.39097745     -1.07822593     -1.28812585
H      -0.18462991     -0.09763975     -1.93572108
H       2.22728560     -0.50627615     -2.01678455
H       4.32680522     -0.44901805     -0.80621754
H       4.40179831     -0.38231174      0.87694844
H       2.41816490     -0.33637531      2.26985811
H       0.00581057      0.07384136      2.37055783
