23
Clc1cc(Cl)c(Oc2cccc(Cl)c2Cl)cc1Cl
Cl      5.01891344     -1.70082956      0.55931618
C       3.52234889     -0.83945168      0.61632740
C       3.45996673      0.39479715     -0.03738848
C       2.27381824      1.12979489     -0.02578653
Cl      2.23492475      2.64564128     -0.84823966
C       1.14281004      0.62711276      0.62650576
O      -0.00637772      1.38799864      0.65934687
C      -1.15829101      0.77090271      0.21503598
C      -1.23617974      0.30151160     -1.10241203
C      -2.41302802     -0.28559981     -1.56233187
C      -3.51511895     -0.39061402     -0.71342266
C      -3.44796330      0.09796214      0.59688080
Cl     -4.86187359     -0.06583971      1.57891755
C      -2.26915202      0.69028243      1.06794304
Cl     -2.14845835      1.30279114      2.68470446
C       1.21023878     -0.59772881      1.30005372
C       2.39766999     -1.33503736      1.28848632
Cl      2.41105476     -2.84618873      2.12498934
H       4.33523841      0.78337873     -0.55286673
H      -0.38983921      0.40353235     -1.77737367
H      -2.47605548     -0.65347797     -2.58426032
H      -4.43088478     -0.84880066     -1.08152043
H       0.34623815     -0.97213753      1.84350535
