32
Cc1cc(C2CC2)nc(Nc2ccccc2)n1
C       1.14443025     -2.92100499     -1.56918743
C       1.17261057     -1.64684163     -0.78161498
C       2.37271913     -1.07652754     -0.41969729
C       2.31985579      0.09992742      0.30278831
C       3.58777076      0.78887639      0.74964732
C       3.73491189      2.28343473      0.57440382
C       4.54836983      1.35262159     -0.27312610
N       1.13417908      0.65101277      0.64270057
C       0.00320472      0.03945941      0.25489997
N      -1.16726950      0.68205748      0.64685009
C      -2.52982208      0.42112259      0.47368408
C      -3.03223750     -0.68339151     -0.22127976
C      -4.40995212     -0.88940054     -0.35980131
C      -5.31264743      0.01072046      0.19760259
C      -4.83726762      1.11670889      0.89347519
C      -3.45985783      1.31690735      1.02833927
N      -0.00984101     -1.09820153     -0.45102901
H       1.65280200     -2.78424077     -2.52871395
H       1.63883385     -3.72208700     -1.01092317
H       0.11428765     -3.23218821     -1.77099552
H       3.32001484     -1.52594010     -0.68901973
H       4.03094078      0.37912385      1.65449744
H       4.23771016      2.83496106      1.36019821
H       2.92607487      2.82981794      0.10121494
H       5.60975173      1.27623564     -0.06693977
H       4.29584009      1.28715973     -1.32561180
H      -0.91998255      1.51146579      1.16525468
H      -2.36284835     -1.40971079     -0.67156489
H      -4.77133331     -1.75693169     -0.90551639
H      -6.38156835     -0.15030680      0.08941600
H      -5.53422152      1.82529526      1.33248108
H      -3.11545882      2.18986478      1.57756756
