47
CC(=O)OC1(C)CCC23CC1C(C)(C)[C@@H]2CC[C@H]3C
C       4.63960020     -0.54714721      1.60761787
C       3.68109177      0.44156006      1.01629222
O       3.77122691      1.65099986      1.16133639
O       2.72213068     -0.21968198      0.31674831
C       1.64697137      0.48913859     -0.36490805
C       2.28391480      1.24722628     -1.55056100
C       0.90072361      1.46673003      0.57397016
C      -0.52940696      1.80532791      0.12493785
C      -1.30177229      0.58751407     -0.42898244
C      -0.51350986      0.03515140     -1.62143730
C       0.67527444     -0.62390616     -0.90234922
C      -0.08036035     -1.50685044      0.16959828
C      -0.52162580     -2.83526475     -0.49457205
C       0.74021240     -1.92250911      1.40159724
C      -1.27251068     -0.59273924      0.59185083
C      -2.69489914     -1.15441505      0.58156105
C      -3.54457838      0.09146619      0.36394688
C      -2.79765031      0.82591013     -0.75527202
C      -3.25142010      2.27189164     -0.89526453
H       4.11117953     -1.20552729      2.30171182
H       5.41873548     -0.01238215      2.15833951
H       5.11280515     -1.12692148      0.81112611
H       1.56376893      1.85401726     -2.10492340
H       2.75759792      0.54495291     -2.24602094
H       3.07604081      1.92620214     -1.21961488
H       0.86803669      1.05833742      1.59002687
H       1.45650318      2.40696649      0.67537991
H      -0.47585239      2.58635469     -0.64392430
H      -1.06181543      2.24071216      0.97925413
H      -1.09033450     -0.70569642     -2.18555988
H      -0.23996769      0.81010085     -2.34110623
H       1.23482005     -1.27521744     -1.58584991
H      -1.13161712     -2.68719157     -1.38963079
H       0.35358065     -3.42093366     -0.80059954
H      -1.09927070     -3.45499724      0.20090506
H       1.63712896     -2.47997632      1.11012910
H       0.14884962     -2.57287205      2.05752625
H       1.05038041     -1.07410206      2.01533530
H      -1.10208092     -0.19121680      1.60047096
H      -2.87429196     -1.85055291     -0.24289060
H      -2.94125380     -1.66387914      1.51784637
H      -3.57986909      0.69465640      1.27929102
H      -4.57089780     -0.15935330      0.07860383
H      -3.04336548      0.32095184     -1.69984980
H      -2.69226598      2.78029251     -1.68712465
H      -4.31365765      2.31238716     -1.16001052
H      -3.12629917      2.83448577      0.03504869
