14
NS(=O)(=O)c1ccc(Cl)s1
N      -2.20786775     -1.38316068     -0.55827556
S      -1.60542292     -0.27292463      0.54776723
O      -1.51994721     -0.95768201      1.81521228
O      -2.37911316      0.93279461      0.36456209
C       0.04944919      0.14451063      0.08598713
C       0.68111917      1.35949027     -0.11706269
C       2.05040019      1.20279624     -0.48528549
C       2.39281644     -0.12316676     -0.54428205
Cl      3.93310625     -0.76532883     -0.94804385
S       1.11841775     -1.17046922     -0.17079117
H      -2.35270900     -2.27824070     -0.08816083
H      -3.06876004     -1.01576155     -0.96618212
H       0.17355464      2.31096920     -0.00376324
H       2.73495644      2.01617342     -0.69195011
