21
Cc1ccc2cccc(O)c2n1
C       3.22524886     -0.87266878      0.13161523
C       1.88219181     -0.21495892      0.24407619
C       1.79449628      1.14558068      0.51304202
C       0.53488272      1.72889347      0.61185773
C      -0.61068113      0.94366489      0.44047470
C      -1.91009587      1.47966150      0.52935816
C      -3.02758125      0.66161304      0.35183623
C      -2.85612247     -0.69268043      0.08524001
C      -1.56664498     -1.20888522      0.00015349
O      -1.42204069     -2.55044171     -0.26427565
C      -0.42829506     -0.42560678      0.17105322
N       0.79110437     -0.99962280      0.07354113
H       3.11898782     -1.94114537     -0.08197307
H       3.77823766     -0.76606281      1.07000569
H       3.80186573     -0.41855018     -0.68018969
H       2.68863835      1.74645868      0.64442524
H       0.45319572      2.79212089      0.82186955
H      -2.05651499      2.53725182      0.73737840
H      -4.02838052      1.08004285      0.42140652
H      -3.71310630     -1.34433400     -0.05572584
H      -0.44938606     -2.68033084     -0.27693178
