35
CN(C)CCOCCN(C)CCO
C      -4.39399277      0.47580724     -0.31960350
N      -3.42505526     -0.49066785      0.19454444
C      -4.11507710     -1.67352436      0.71032107
C      -2.55525434      0.08957826      1.23637121
C      -1.69771385      1.30112837      0.80290631
O      -0.97872967      1.09980782     -0.41586295
C       0.15728880      0.23992149     -0.29973569
C       1.41858075      1.05892051      0.03398734
N       2.62006403      0.24782740      0.34030957
C       3.65673828      1.13024754      0.89623994
C       3.11782324     -0.44708904     -0.87395000
C       4.21080569     -1.48020004     -0.55126669
O       3.78000214     -2.32195403      0.51679616
H      -5.02876539      0.88499026      0.47452680
H      -3.89465711      1.30541570     -0.82992015
H      -5.04305039      0.00887028     -1.06944903
H      -4.77632105     -1.43245269      1.55053984
H      -4.71478445     -2.14437411     -0.07671570
H      -3.39316471     -2.42732600      1.04392975
H      -3.15006444      0.38549986      2.11070591
H      -1.87121039     -0.69586754      1.57906702
H      -2.34603130      2.17020440      0.64785214
H      -1.00504736      1.57277487      1.60760989
H      -0.00840820     -0.54906355      0.44044951
H       0.27220125     -0.24395740     -1.27419853
H       1.18015077      1.67983178      0.90692121
H       1.61800586      1.76742030     -0.78153460
H       3.98858499      1.88320873      0.17232759
H       3.28273171      1.64995354      1.78596293
H       4.52832323      0.55946791      1.23082423
H       3.47699013      0.26232030     -1.62914142
H       2.29399934     -1.01395405     -1.32028025
H       5.14969132     -1.00162269     -0.25812371
H       4.41121792     -2.10916908     -1.42399795
H       3.23412833     -1.74197415      1.08626714
