40
Cc1ccc(N/N=C2\C(=O)C(C(=O)[O-])=Cc3ccccc32)c(S(=O)(=O)[O-])c1.[Sr+2]
C       6.00209298      0.54519181     -0.18246848
C       4.58899815      0.53978420      0.26732996
C       4.04831619      1.53315408      1.04946399
C       2.72822567      1.46857442      1.43123149
C       1.88902790      0.40113575      1.04405414
N       0.56085085      0.37300800      1.47716959
N      -0.48113305     -0.43993612      1.14303410
C      -1.48707112      0.02526206      0.48849164
C      -1.49671810      1.42200146      0.10809135
O      -0.53603151      2.14869525      0.40793635
C      -2.65703552      1.96070693     -0.63630249
C      -2.66920222      3.36388079     -1.01932089
O      -3.67321383      3.78046721     -1.65029136
O      -1.58878836      4.15938924     -0.67409462
C      -3.65293286      1.14081685     -0.93106432
C      -3.69491952     -0.25892242     -0.57667890
C      -4.76926570     -1.06398949     -0.91330440
C      -4.78166108     -2.39106490     -0.55996847
C      -3.74748356     -2.96840998      0.13057735
C      -2.67008626     -2.13950219      0.46216620
C      -2.62679223     -0.80762131      0.12318164
C       2.42976475     -0.57743517      0.27160028
S       1.49113175     -1.93543924     -0.24747460
O       2.45418398     -2.94075458     -0.90781036
O       0.49957710     -1.61952673     -1.31715057
O       0.83682105     -2.78224378      1.04782447
C       3.77923517     -0.48494383     -0.10258109
Sr      0.00000000      0.00000000      0.00000000
H       6.66134782      0.16817243      0.62095046
H       6.29852169      1.59899147     -0.37620559
H       6.13169564      0.01103290     -1.14578188
H       4.69422618      2.34790724      1.34360155
H       2.30346717      2.25866391      2.05053606
H       0.31059022      1.11349156      2.22482337
H      -4.49964325      1.54286901     -1.47602231
H      -5.59495059     -0.63337397     -1.45669332
H      -5.63580089     -2.99044078     -0.83790892
H      -3.77318922     -4.01201535      0.40027142
H      -1.85857104     -2.57552431      1.00486741
H       4.18641561     -1.28205239     -0.72181932
