9
N#CNC(N)=S
N      -1.75536545     -1.82936867     -0.67370762
C      -1.39791120     -0.75504828     -0.43462678
N      -0.96735812      0.46887698     -0.15682970
C       0.37895141      0.65347620      0.18297954
N       1.22403798     -0.40561351      0.22568880
S       0.94586700      2.17725995      0.53601884
H      -1.56840494      1.29356245     -0.17683297
H       2.19253208     -0.24573204      0.47406930
H       0.94765123     -1.35741309      0.02324059
