17
Cc1cccc2n[n-]nc12.[Na+]
C       2.22547563      0.56432396     -0.06533808
C       0.82954143      0.04061882     -0.00417710
C       0.54976275     -1.33687093     -0.02061304
C      -0.76355082     -1.82386885      0.01198715
C      -1.85347443     -0.95503619      0.05249690
C      -1.59496803      0.42268487      0.05453031
N      -2.44762709      1.47202615      0.08142643
N      -1.66156679      2.57646173      0.06121729
N      -0.34019850      2.27309050      0.02368201
C      -0.27406110      0.91968292      0.02328423
Na      0.00000000      0.00000000      0.00000000
H       2.88054161     -0.02381439      0.58619045
H       2.60310622      0.50006419     -1.09071032
H       2.29294222      1.60587844      0.26358469
H       1.37349228     -2.04602418     -0.05809197
H      -0.94002184     -2.89585600      0.00308586
H      -2.87939355     -1.29336105      0.07744520
