17
O=S(=O)([O-])[O-].O=S(=O)([O-])[O-].O=S(=O)([O-])[O-].[Fe+3].[Fe+3]
O      -0.02299391     -0.89313083     -1.17267240
S      -0.00000015      0.00000024      0.00000029
O      -0.20511426     -0.79298312      1.22575647
O      -1.07531894      1.00091176     -0.12344604
O       1.30342725      0.68520196      0.07036169
O      -0.08196105      1.13378760     -0.93871190
S       0.00000017     -0.00000018     -0.00000001
O      -0.08903359      0.50035674      1.38386641
O       1.28311275     -0.70134642     -0.18736810
O      -1.11211828     -0.93279775     -0.25778639
O       0.00335875     -0.92646582     -1.14674427
S      -0.00000014      0.00000030     -0.00000045
O      -0.24074017     -0.75649598      1.24222691
O       1.30437421      0.68175819      0.08477280
O      -1.06699265      1.00120331     -0.18025499
Fe      0.00000000      0.00000000      0.00000000
Fe      0.00000000      0.00000000      0.00000000
