43
C/C=C(\C)C(=O)OCCC(C)CCC=C(C)C
C      -3.58552749      4.06902389     -1.09270926
C      -3.32508413      2.68743627     -0.58156594
C      -4.23222208      1.73119479     -0.29245456
C      -5.72248587      1.88688800     -0.39839788
C      -3.80946265      0.38003509      0.20436402
O      -4.60425329     -0.49236273      0.52360619
O      -2.45931033      0.25904940      0.25038953
C      -1.98932166     -1.00625864      0.72812682
C      -0.46132905     -1.02271655      0.66818428
C       0.11554927     -0.85304358     -0.75268419
C      -0.22061005     -2.04472619     -1.65179532
C       1.63615906     -0.58004855     -0.72149639
C       2.49110174     -1.70747312     -0.13485202
C       3.95375512     -1.35880655     -0.18653826
C       4.72170958     -0.89269720      0.81688795
C       4.23059815     -0.57741165      2.20304485
C       6.18986498     -0.62799645      0.60329306
H      -3.37884824      4.80047185     -0.30544053
H      -2.91641371      4.27864189     -1.93404268
H      -4.60607872      4.21999223     -1.44759732
H      -2.26478957      2.47607755     -0.44748056
H      -6.20633329      1.61192643      0.54596631
H      -6.03564887      2.90867000     -0.62080442
H      -6.11483091      1.23928849     -1.18996705
H      -2.41295389     -1.81950921      0.12857744
H      -2.30660242     -1.13353537      1.76999289
H      -0.08686900     -0.20148547      1.29207697
H      -0.10652370     -1.95915280      1.11387249
H      -0.34280402      0.03394052     -1.20744898
H       0.08150130     -2.99367394     -1.19698142
H       0.28161141     -1.95576178     -2.62089604
H      -1.29545437     -2.09724563     -1.84872168
H       1.97395617     -0.36417255     -1.74450047
H       1.81100446      0.33944929     -0.14647615
H       2.35030265     -2.63083091     -0.70786490
H       2.18092079     -1.93880056      0.88751444
H       4.41627852     -1.52782141     -1.15893432
H       4.67565756     -1.26632863      2.92722917
H       3.14460839     -0.64024830      2.30388069
H       4.51514984      0.44368978      2.47766489
H       6.51942923     -0.89798573     -0.40539551
H       6.78656979     -1.20970873      1.31420958
H       6.40802932      0.43402675      0.75326401
