22
O=C(O)C1=CCC(C(=O)O)CC1
O       3.72701945     -0.84283988     -0.44956104
C       3.00205320      0.12941869     -0.33343244
O       3.51168851      1.37163520     -0.29958161
C       1.52498361      0.08700409     -0.21693018
C       0.78780785      1.20134424     -0.05102804
C      -0.70750272      1.19027253      0.09689043
C      -1.28900255     -0.20713274      0.34449626
C      -2.78227419     -0.19442351      0.11679641
O      -3.41073523     -0.85302887     -0.69404548
O      -3.42591503      0.63849399      0.95847629
C      -0.60553219     -1.24122394     -0.55617346
C       0.90458902     -1.28183039     -0.30848438
H       4.47602453      1.22608903     -0.38717302
H       1.26243385      2.17983690     -0.01125088
H      -0.98066517      1.84629316      0.93279717
H      -1.14668835      1.63742289     -0.80405611
H      -1.12389475     -0.50248622      1.38964006
H      -4.37165898      0.53247138      0.72122982
H      -1.02905041     -2.23893713     -0.38702075
H      -0.79604409     -1.00054281     -1.61110146
H       1.10431326     -1.81906193      0.62716613
H       1.36805037     -1.85877465     -1.11779025
