31
CCCCC1(CC)C(=O)NC(=S)NC1=O
C       4.04397671      0.86787652     -0.27666113
C       3.03633511     -0.25381688     -0.47235123
C       1.60488057      0.23107272     -0.23206367
C       0.59516388     -0.90930606     -0.43223931
C      -0.89902213     -0.52944522     -0.21290585
C      -1.75754857     -1.80071979     -0.45833554
C      -3.25894430     -1.58652242     -0.27971367
C      -1.06776252     -0.08631621      1.23072110
O      -1.03835486     -0.86489340      2.18243199
N      -1.20201103      1.25646814      1.45737949
C      -1.37559221      2.21412502      0.51101744
S      -1.58366840      3.80925056      0.92615547
N      -1.38916275      1.81610274     -0.78676187
C      -1.27353531      0.52901594     -1.23676850
O      -1.42326255      0.28612805     -2.43317494
H       3.99801169      1.26298275      0.74319967
H       5.05959353      0.50007436     -0.45307608
H       3.85488283      1.69098962     -0.97312825
H       3.13032961     -0.64762444     -1.49104270
H       3.27269928     -1.07336479      0.21621596
H       1.38778979      1.05385231     -0.92208019
H       1.53026091      0.62781045      0.78639018
H       0.72026389     -1.30363897     -1.45006286
H       0.86207780     -1.72770636      0.25046947
H      -1.44473593     -2.60207502      0.22367715
H      -1.58637438     -2.17852454     -1.47476382
H      -3.50218949     -1.26637911      0.73770724
H      -3.79252365     -2.52377320     -0.46894936
H      -3.64528740     -0.83845556     -0.97824127
H      -1.26457376      1.53427729      2.42925308
H      -1.59171637      2.51253551     -1.49357441
