49
CCCCCCCCCCCC(=O)OCC(O)CO
C      -6.46395422      2.75785281     -1.69301511
C      -6.41061679      1.83164492     -0.48841547
C      -5.28725129      0.80247949     -0.62218232
C      -5.23627922     -0.12296918      0.59549060
C      -4.20710525     -1.24918232      0.46217934
C      -2.76099040     -0.75065541      0.41973161
C      -1.77271697     -1.91916824      0.40007558
C      -0.32584667     -1.42317585      0.34646693
C       0.66039886     -2.59298222      0.32536524
C       2.11644753     -2.15289269      0.15798620
C       2.64710018     -1.35368460      1.34287941
C       4.12190714     -1.09154847      1.18271955
O       5.00252891     -1.75519577      1.71085659
O       4.32966432     -0.03148328      0.35238187
C       5.71980216      0.27100814      0.12883341
C       5.79304177      1.42298166     -0.87131160
O       5.16946186      2.59531207     -0.31567039
C       7.23801085      1.77881511     -1.21600886
O       7.24811353      2.86798866     -2.13856840
H      -6.64236693      2.19382346     -2.61415804
H      -5.52572382      3.31074133     -1.80470782
H      -7.27446810      3.48424082     -1.57706604
H      -6.26185439      2.42922190      0.41852356
H      -7.37473663      1.32013494     -0.38584967
H      -4.33258508      1.32837557     -0.73488464
H      -5.44082969      0.20766675     -1.53069128
H      -6.22362856     -0.57903770      0.73991150
H      -5.02481553      0.46348956      1.49790011
H      -4.32779616     -1.92457394      1.31833090
H      -4.42222784     -1.83888264     -0.43723212
H      -2.60223210     -0.13383428     -0.47172047
H      -2.56396983     -0.11799324      1.29354093
H      -1.97564027     -2.55603678     -0.46956512
H      -1.91556783     -2.53743263      1.29467370
H      -0.18280345     -0.80591112     -0.54859162
H      -0.13337513     -0.78495850      1.21604529
H       0.55703814     -3.18239553      1.24452560
H       0.40710785     -3.26038115     -0.50776970
H       2.22226485     -1.56813057     -0.76432900
H       2.73570566     -3.04900830      0.02257363
H       2.13215302     -0.39369062      1.45603354
H       2.50205462     -1.90188455      2.28084907
H       6.22959302     -0.61257330     -0.27199220
H       6.16780952      0.56808353      1.08438205
H       5.23162311      1.18493368     -1.78205331
H       4.28011946      2.31492418     -0.02798948
H       7.79069324      2.09905721     -0.32661861
H       7.76032335      0.93404644     -1.67427024
H       6.62641921      3.52284066     -1.76143637
