27
CC[C@H](C)[C@@H](NC(C)=O)C(=O)O
C      -1.94692041      0.28910946      1.15651943
C      -1.97286517     -0.24063552     -0.26906673
C      -0.70328728      0.06763843     -1.09248821
C      -0.92694904     -0.37076841     -2.54730079
C       0.61379407     -0.53529028     -0.54188798
N       1.13295130      0.23525312      0.59310263
C       1.80499960      1.41922748      0.42936139
C       2.34109001      2.00752080      1.70600099
O       1.97109680      1.95885703     -0.65906514
C       0.47931647     -2.01507477     -0.15080616
O       0.10955837     -2.93308454     -0.86448931
O       0.81726875     -2.26550332      1.13843839
H      -2.93479181      0.17408005      1.61477565
H      -1.23636208     -0.26076141      1.77890250
H      -1.68743897      1.35205726      1.17908925
H      -2.16914840     -1.31898746     -0.24942299
H      -2.83392004      0.21450050     -0.77574519
H      -0.59445099      1.16047205     -1.11997595
H      -0.05551223     -0.13158729     -3.16589771
H      -1.78846005      0.15088715     -2.97848855
H      -1.11732907     -1.44537876     -2.62484025
H       1.39491793     -0.49362315     -1.31190073
H       1.19501343     -0.26185804      1.47640275
H       3.42719050      1.88641557      1.72747531
H       1.91080965      1.52098558      2.58585370
H       2.08631870      3.07023491      1.74436908
H       0.68310994     -3.23468644      1.22108463
