22
Cn1c([N+](=O)[O-])cnc1COC(N)=O
C      -0.18922930      1.52749738      0.81021654
N      -1.01408781      0.43754242      0.33882636
C      -2.33889420      0.48337108     -0.01808639
N      -3.15914312      1.64536047     -0.03123890
O      -2.61320844      2.74023188      0.14290487
O      -4.36639847      1.46514948     -0.22615149
C      -2.69294594     -0.79795261     -0.35151404
N      -1.61318710     -1.63143558     -0.23306316
C      -0.60403198     -0.87571814      0.16751441
C       0.78956001     -1.36454505      0.40943586
O       1.62511470     -0.71048357     -0.54903804
C       2.93599018     -0.97538774     -0.37435573
N       3.66204842     -0.36787779     -1.33839677
O       3.42350959     -1.65837464      0.51022339
H      -0.69676102      2.01874401      1.64423640
H       0.77142699      1.15595130      1.16988787
H      -0.02240935      2.21910999     -0.01916847
H      -3.65839073     -1.16599890     -0.67688539
H       0.83288313     -2.44865760      0.25355847
H       1.09890390     -1.12979563      1.43456453
H       4.64307315     -0.59680056     -1.40591830
H       3.18617737      0.03006979     -2.13376141
