36
O=c1n(C[C@@H]2CO2)c(=O)n(C[C@@H]2CO2)c(=O)n1C[C@@H]1CO1
O       2.09666945      1.52531133     -0.82088490
C       1.11900832      0.77600729     -0.87292211
N      -0.17290778      1.25288348     -0.81315243
C      -0.37604035      2.67924887     -0.58786715
C      -0.69349764      2.93943846      0.85514635
C      -0.01128948      4.04207316      1.62302607
O       0.37724937      2.66911889      1.77149065
C      -1.29007628      0.45473383     -0.93687881
O      -2.42593676      0.93553598     -0.95436366
N      -1.06223549     -0.89880762     -1.05679248
C      -2.21245785     -1.79430251     -1.09584492
C      -2.46832043     -2.39148144      0.25661506
C      -3.83558255     -2.34512944      0.88974875
O      -2.79009680     -1.44858494      1.28931899
C       0.19463971     -1.46093041     -1.06731251
O       0.35578365     -2.68316832     -1.11466755
N       1.25910363     -0.58875119     -1.01513805
C       2.60775604     -1.14661887     -1.03568734
C       3.04547251     -1.50724713      0.35116692
C       3.78028352     -0.52717827      1.22822210
O       4.46787927     -1.57340095      0.52550932
H      -1.20996449      3.03202580     -1.20581596
H       0.50696193      3.24769082     -0.90015011
H      -1.69243929      2.63751346      1.14240235
H       0.67700821      4.70062407      1.10832449
H      -0.54452665      4.49992152      2.44689037
H      -2.01578576     -2.60243682     -1.81031813
H      -3.09879618     -1.26311056     -1.45997586
H      -1.79795836     -3.20319847      0.50723081
H      -4.10807454     -3.13181348      1.58228461
H      -4.66476906     -1.92496968      0.33441613
H       2.62554336     -2.04595283     -1.66203561
H       3.30095224     -0.43035791     -1.49241956
H       2.45194762     -2.28823106      0.80748463
H       3.68068996     -0.62538756      2.30194883
H       3.92380695      0.48893251      0.88100071
