36
Cc1ccccc1NC(=O)c1cc2ccccc2cc1O
C       2.56142276     -2.71553968     -0.10944715
C       3.36857564     -1.45096199      0.01696250
C       4.76607526     -1.56563100      0.13346322
C       5.56904082     -0.43403704      0.25215770
C       4.98486706      0.82590563      0.25855347
C       3.59836234      0.95693861      0.14383702
C       2.77507952     -0.16826991      0.01672231
N       1.36650786     -0.06737298     -0.09102008
C       0.60928001      1.08110756     -0.23058666
O       1.02346520      2.22461521     -0.39873565
C      -0.86875604      0.88321604     -0.24771502
C      -1.47413010     -0.15521975      0.47659372
C      -2.86671500     -0.34576170      0.43365123
C      -3.48445949     -1.38619246      1.14678529
C      -4.86761051     -1.56625334      1.09172551
C      -5.65130246     -0.70861670      0.32573791
C      -5.05461867      0.33335909     -0.38521640
C      -3.66532809      0.52868651     -0.34045274
C      -3.05573086      1.58085675     -1.03909943
C      -1.67548718      1.76266780     -0.98054796
O      -1.17559014      2.83461620     -1.67257604
H       3.19859476     -3.60632946     -0.09429262
H       1.85836626     -2.80254224      0.72528022
H       2.01228509     -2.72273053     -1.05653484
H       5.24091984     -2.54471198      0.13148843
H       6.64736942     -0.53571095      0.34080412
H       5.60367212      1.71446535      0.35445671
H       3.19086259      1.96254306      0.16609448
H       0.87147962     -0.94415509     -0.16328734
H      -0.87404174     -0.80905476      1.10440642
H      -2.89342840     -2.06826627      1.75410659
H      -5.33323372     -2.37563691      1.64842552
H      -6.72870278     -0.84703209      0.28305430
H      -5.68461671      0.99675031     -0.97440608
H      -3.65196491      2.27475210     -1.62743139
H      -0.24050935      2.96236035     -1.39295729
