73
COc1ccc(CCN(C)CCCC(C#N)(c2ccc(OC)c(OC)c2)C(C)C)cc1OC.Cl
C       8.02427363      1.78139006     -2.51539103
O       7.41780499      1.48454541     -1.30756313
C       6.41471112      0.63278354     -0.99325133
C       5.79217414     -0.15981124     -1.92733001
C       4.78137439     -1.02241474     -1.61367380
C       4.38764699     -1.07678844     -0.27622592
C       3.36299269     -2.01165941      0.15334355
C       1.93565648     -1.52377285     -0.02396945
N       1.69003849     -0.35525976      0.69685321
C       1.71557785     -0.55953693      2.14417608
C       0.74220482      0.59590133      0.29013448
C      -0.71039039      0.26184962      0.35117833
C      -1.12489934     -0.80620517     -0.56825313
C      -2.53413872     -1.27736919     -0.50495417
C      -2.67641312     -2.33043663     -1.54487750
N      -2.79131965     -3.13784224     -2.36417797
C      -3.51045744     -0.21312119     -0.69780493
C      -4.21706543     -0.18475339     -1.90781183
C      -5.17657925      0.75825438     -2.15942438
C      -5.50802390      1.72800576     -1.25738161
O      -6.48339104      2.70001121     -1.48451828
C      -7.20753444      2.71398166     -2.71089717
C      -4.81135918      1.72685214     -0.02599372
O      -5.11592853      2.65219435      0.84884778
C      -5.32797139      3.50995937      1.78235273
C      -3.83214118      0.74548532      0.20443451
C      -2.74913065     -2.01907995      0.81241050
C      -4.12823482     -2.54584091      0.96619714
C      -1.75293243     -3.15631357      0.85575100
C       5.00163675     -0.28499131      0.67960583
C       6.01198004      0.57246737      0.34399318
O       6.64791929      1.37720584      1.27968180
C       6.23660618      1.28744326      2.62990124
Cl      0.68778729      0.00000000      0.00000000
H       8.92550069      2.42981471     -2.36603538
H       7.31472042      2.26582582     -3.20806209
H       8.44646114      0.84439025     -2.98310985
H       6.12590500     -0.09232952     -2.96055807
H       4.26971270     -1.65272480     -2.29390887
H       3.45586321     -2.24313037      1.25861036
H       3.45803135     -3.02164640     -0.32428572
H       1.76273019     -1.38948010     -1.11141995
H       1.34190729     -2.41452267      0.38902785
H       0.71486771     -0.20391726      2.52859913
H       2.47865887      0.12608078      2.58326582
H       1.87456356     -1.60501045      2.43713722
H       1.02177507      0.92023628     -0.76966351
H       0.88343976      1.52504265      0.93801925
H      -1.31650464      1.18399035      0.06732329
H      -1.00365141      0.07566400      1.40874021
H      -1.01510252     -0.36389460     -1.62458611
H      -0.49087715     -1.70899338     -0.61909831
H      -3.98269358     -0.94503619     -2.66681850
H      -5.72255016      0.76582224     -3.11646113
H      -8.10978059      3.33932363     -2.64492715
H      -7.55118756      1.65580241     -2.91663767
H      -6.56823490      2.98715381     -3.58339957
H      -4.39937207      3.67075753      2.43276698
H      -5.60166118      4.53132969      1.36620552
H      -6.17540986      3.29883280      2.50802922
H      -3.32540564      0.76460106      1.16224890
H      -2.46704720     -1.31597994      1.63127916
H      -4.55656395     -2.24664341      1.94088613
H      -4.15959981     -3.67642531      0.97204724
H      -4.81460248     -2.28199833      0.12904194
H      -2.11665313     -4.04903788      1.39574701
H      -0.81283085     -2.82745224      1.40236784
H      -1.48108550     -3.50736354     -0.17442621
H       4.66282556     -0.34921969      1.71244454
H       6.28227100      0.18890692      2.87691842
H       5.19268411      1.63288658      2.73388459
H       6.95420962      1.82521089      3.29938327
H      -0.68778729      0.00000000      0.00000000
