33
N#CCCN(CCC#N)C(CCC(=O)O)C(=O)O
N      -3.33469888      1.23868667     -3.57988655
C      -2.37754944      0.92548950     -3.00290409
C      -1.18084357      0.52315066     -2.25117463
C      -1.36111554      0.84644119     -0.75963386
N      -0.17239497      0.58343804      0.07130366
C      -0.14991412      1.36056921      1.32926800
C      -1.44250373      1.44457701      2.16023573
C      -1.20020725      2.19000818      3.40396396
N      -1.00553491      2.78173650      4.38274777
C       0.20745850     -0.84981000      0.18624091
C       1.69599094     -1.05336372      0.55460746
C       2.66911290     -0.38237649     -0.41400624
C       2.60370706     -1.00180979     -1.78011605
O       1.87200282     -0.66002035     -2.69312489
O       3.42203404     -2.06103634     -1.91180399
C      -0.67640420     -1.62417146      1.16403863
O      -0.49599541     -1.76383540      2.36233724
O      -1.77474174     -2.14258439      0.57519998
H      -0.30751931      1.05501585     -2.64526936
H      -1.01427226     -0.54625964     -2.40908562
H      -1.59335643      1.91821950     -0.69687989
H      -2.23860146      0.32186090     -0.35983946
H       0.13171051      2.38663792      1.05255445
H       0.67540992      1.02707332      1.96990667
H      -2.22774129      1.95497620      1.59201545
H      -1.82389370      0.45169840      2.40689610
H       0.08376562     -1.34614877     -0.78199555
H       1.90331315     -2.13226828      0.58672202
H       1.90069893     -0.68766691      1.56808808
H       2.48255201      0.69265386     -0.50959311
H       3.69656845     -0.47515238     -0.03983496
H       3.28055152     -2.37018985     -2.83066241
H      -2.24758818     -2.60553916      1.29968455
