32
NC(=O)OCC1CSC2(CCCCC2)S1
N       4.88831549      2.14011498     -0.56552257
C       4.48119943      0.89000868     -0.87481899
O       5.08470808      0.14849605     -1.63237671
O       3.32740914      0.61076813     -0.23144708
C       2.79207329     -0.68812983     -0.52924979
C       1.48205897     -0.88775869      0.23599417
C       0.97859849     -2.31340075      0.09897232
S      -0.67048517     -2.40216765      0.84211501
C      -1.26082944     -0.72963630      0.34020904
C      -2.39853251     -0.89298898     -0.68396113
C      -3.12971446      0.41813094     -0.98956596
C      -3.61627076      1.10231689      0.28392203
C      -2.48417052      1.31796352      1.28314981
C      -1.75114202      0.01026074      1.59888709
S       0.15208594      0.17563786     -0.42181333
H       5.67463176      2.52618740     -1.06549691
H       4.26763216      2.74289663     -0.04779000
H       3.51859293     -1.44296500     -0.20286708
H       2.63942422     -0.79197026     -1.61131167
H       1.63180479     -0.61597733      1.28812677
H       0.91466691     -2.63074042     -0.94844657
H       1.64169049     -3.01524587      0.61494994
H      -3.14695389     -1.59699231     -0.29284196
H      -2.03141113     -1.32866906     -1.62271721
H      -3.98664819      0.21146429     -1.64132653
H      -2.47396672      1.09815821     -1.54541131
H      -4.39880472      0.48978396      0.74870838
H      -4.07458217      2.06551013      0.03273490
H      -2.89251304      1.73712662      2.21018436
H      -1.78180258      2.06156027      0.88925120
H      -0.92257394      0.21947013      2.28847700
H      -2.45449083     -0.62921296      2.15128278
