26
CCCCCCCC(=O)O
C      -4.47838541      0.13788317      0.01143503
C      -3.16090568     -0.62056464     -0.01117819
C      -1.96604159      0.33042796      0.05307000
C      -0.64279969     -0.43643366      0.03009304
C       0.55301077      0.51516452      0.09436553
C       1.87563460     -0.25110393      0.07145941
C       3.06683871      0.69676736      0.13514718
C       4.35593719     -0.07166809      0.13975075
O       5.01018109     -0.37829097      1.12187468
O       4.74840618     -0.43996253     -1.09395414
H      -4.55424620      0.81801857     -0.84296376
H      -4.57659122      0.72636532      0.92924794
H      -5.31910736     -0.56133897     -0.03532682
H      -3.10864009     -1.22319759     -0.92540275
H      -3.13086147     -1.31434610      0.83703716
H      -2.00314661      1.02483023     -0.79516322
H      -2.02536988      0.93368594      0.96719836
H      -0.60579403     -1.13065314      0.87844542
H      -0.58361126     -1.03951700     -0.88412795
H       0.51617071      1.20929836     -0.75407350
H       0.49371313      1.11826074      1.00857484
H       1.93505555     -0.86001724     -0.83929316
H       1.91507172     -0.94959414      0.91677708
H       3.03381568      1.30722749      1.04493329
H       3.07132091      1.39381629     -0.71063594
H       5.58034427     -0.93505793     -0.94060925
