23
Clc1ccc(Oc2cc(Cl)ccc2Cl)c(Cl)c1
Cl      5.13705564      0.64933362     -1.08145209
C       3.56019393      0.04720172     -0.74813911
C       2.50276523      0.37727576     -1.59617070
C       1.22136313     -0.10865035     -1.33009778
C       1.00201418     -0.91223979     -0.20521448
O      -0.24753300     -1.43351893      0.05217794
C      -1.27066990     -0.52017065      0.19399873
C      -1.19833806      0.48774221      1.16270547
C      -2.26353044      1.37404531      1.31230184
Cl     -2.17459416      2.62264414      2.49209040
C      -3.40343746      1.25545048      0.51701102
C      -3.48412024      0.23576902     -0.43464881
C      -2.42135196     -0.65674329     -0.59183182
Cl     -2.55562244     -1.89958936     -1.78040800
C       2.07308781     -1.25611747      0.62849222
Cl      1.84419165     -2.26344083      2.01097305
C       3.35364589     -0.76967954      0.36208468
H       2.67142170      1.00430617     -2.46848163
H       0.40597748      0.13140573     -2.00765091
H      -0.32544446      0.57430005      1.80357116
H      -4.23370019      1.94719577      0.63791875
H      -4.37787759      0.14122363     -1.04673376
H       4.18450326     -1.02774341      1.01307063
