22
COc1cc(C=O)c(C)cc1O
C       3.38045934     -0.14370837     -0.59191681
O       2.23449628     -0.10913820     -1.43663113
C       1.01523277     -0.05175495     -0.81303300
C       0.79184871     -0.02419176      0.56086610
C      -0.52158679      0.03534144      1.06414820
C      -0.69512538      0.06224387      2.53701904
O       0.26046816      0.03428973      3.30465319
C      -1.62918229      0.06801929      0.19381193
C      -3.04774213      0.13160662      0.68472910
C      -1.39072193      0.03974788     -1.18772627
C      -0.08733930     -0.01910671     -1.67068489
O       0.09467087     -0.04476984     -3.02676868
H       3.45216485      0.76635627      0.01276601
H       3.37965154     -1.03991525      0.03722040
H       4.26589873     -0.18793921     -1.23333495
H       1.61664151     -0.04773781      1.26727836
H      -1.72310974      0.10878622      2.92786744
H      -3.76139776      0.14900224     -0.14608333
H      -3.27874468     -0.74679565      1.29571777
H      -3.20694564      1.04189024      1.27149827
H      -2.21284153      0.06311402     -1.89939548
H       1.06320439     -0.08534005     -3.15200126
