44
CCCCc1nc(C(C)(C)C)nc2nc(N)c(C#N)c(N)c12
C       3.35131159     -4.11918044     -0.34303533
C       3.35463483     -2.60772613     -0.17866508
C       1.93289119     -2.04538803     -0.14233269
C       1.94309713     -0.51751695      0.02560084
C       0.57408362      0.13340907      0.05185317
N      -0.46992387     -0.72368856      0.04466749
C      -1.70577180     -0.21601355      0.03625634
C      -2.88874878     -1.17823816     -0.03024587
C      -2.51860511     -2.56003026      0.54456039
C      -4.07986444     -0.63045781      0.77923752
C      -3.30204783     -1.34007303     -1.50186517
N      -1.95535616      1.09550859      0.00392726
C      -0.93995794      1.94197351      0.02653460
N      -1.29009495      3.22541379      0.01148546
C      -0.36046010      4.19009589      0.04726589
N      -0.87447034      5.48499695      0.07911685
C       0.99498903      3.91125503      0.11422217
C       1.94586717      4.97635865      0.19945870
N       2.75779703      5.80518234      0.24634169
C       1.40109746      2.56548666      0.09322756
N       2.76721660      2.22559089      0.29581176
C       0.39865917      1.53613738      0.06705479
H       4.37708395     -4.50013315     -0.36666136
H       2.85880795     -4.41123181     -1.27603097
H       2.82823011     -4.60303415      0.48799352
H       3.91248531     -2.15724015     -1.00782271
H       3.88172145     -2.34774223      0.74666419
H       1.41061243     -2.31475807     -1.06918824
H       1.38081090     -2.50869333      0.68524560
H       2.45639155     -0.28297004      0.96511049
H       2.51419204     -0.09519062     -0.80950805
H      -2.17920189     -2.48008525      1.58408446
H      -3.37889778     -3.23910516      0.52592375
H      -1.71620140     -3.03777830     -0.02996863
H      -3.80259608     -0.45983571      1.82621538
H      -4.92235657     -1.33159195      0.76632958
H      -4.44459031      0.32112209      0.37515463
H      -4.15003803     -2.02708291     -1.60177079
H      -2.47784810     -1.73721821     -2.10630272
H      -3.59777300     -0.38099419     -1.94339048
H      -1.88779892      5.41704997     -0.00899920
H      -0.47986848      6.10075372     -0.62449053
H       3.43231067      2.94825989      0.01754279
H       2.94818068      1.97440374      1.26908644
