19
CC(=O)n1ncc2c(=O)[nH]cnc21
C       3.39489296      0.09277498     -0.15798400
C       2.07909457      0.81449690     -0.18761680
O       1.96399724      2.03179759     -0.27841966
N       0.95135223     -0.02302832     -0.10172851
N       1.10737106     -1.38912428     -0.00034925
C      -0.13814195     -1.87035338      0.06059214
C      -1.09455104     -0.85952309      0.00189267
C      -2.52778742     -0.82484623      0.02704711
O      -3.24133078     -1.81559189      0.11660921
N      -3.02838252      0.45898029     -0.06135951
C      -2.22628531      1.57854841     -0.16248460
N      -0.92984211      1.56706330     -0.18675775
C      -0.39464615      0.31957864     -0.10179991
H       3.48068317     -0.58684477     -1.01034048
H       3.51548829     -0.44972770      0.78377094
H       4.20325982      0.82731022     -0.22980385
H      -0.28963278     -2.93975813      0.14526122
H      -4.03340650      0.54630713     -0.04853565
H      -2.79213277      2.52194031     -0.22360715
