22
CC(=O)Nc1ccc(S(=O)(=O)Cl)cc1
C      -4.19686229     -0.09848296     -0.52137110
C      -2.79027602      0.39891674     -0.74531416
O      -2.57007189      1.33492806     -1.50510360
N      -1.85533670     -0.33490599     -0.03686126
C      -0.45839749     -0.14571065     -0.00925738
C       0.29190284     -1.04051557      0.76785178
C       1.68282029     -0.92547002      0.85101732
C       2.33096388      0.08939632      0.14518506
S       4.08899926      0.26148060      0.26115910
O       4.44319534      1.65004590      0.05730568
O       4.56615271     -0.51327618      1.38781260
Cl      4.70937286     -0.73770342     -1.40907372
C       1.59739623      0.99797193     -0.61948536
C       0.20572359      0.87362395     -0.69759418
H      -4.39817306     -0.93184187     -1.19947276
H      -4.90418896      0.71180834     -0.72040929
H      -4.33764223     -0.42362424      0.51347760
H      -2.21043694     -1.10459559      0.51665615
H      -0.19546580     -1.83937548      1.32224263
H       2.24325883     -1.62735528      1.46571105
H       2.08955938      1.80700060     -1.15660875
H      -0.33249384      1.59768480     -1.30283186
