38
O=C1NC(=O)C2(CCCCCCCCC2)C(=O)N1
O       5.36158364     -0.61761663      0.19239765
C       4.15084139     -0.42717307      0.14450990
N       3.34112778     -0.74790713      1.18926386
C       2.17881688     -0.07326822      1.44757229
O       1.80464292      0.09366082      2.60489963
C       1.40629562      0.39490576      0.21421933
C       0.39583878      1.50451272      0.62378509
C      -0.53028323      2.03004185     -0.49073739
C      -2.01259107      2.11716733     -0.10311211
C      -2.66803267      0.79380395      0.30190162
C      -2.72220426     -0.25694663     -0.81413686
C      -2.69848194     -1.69163698     -0.27478289
C      -1.32109891     -2.37710067     -0.26692903
C      -0.21354519     -1.64083856      0.49670090
C       0.72112005     -0.84553490     -0.43112864
C       2.42417469      0.94093918     -0.78840752
O       2.25932753      1.94377684     -1.47633461
N       3.57444386      0.20820072     -0.91122187
H       3.84456035     -1.04692653      2.01464633
H       0.96821595      2.36291035      1.00555222
H      -0.19296291      1.17395425      1.48513409
H      -0.42775968      1.46156135     -1.41744939
H      -0.20263926      3.04640265     -0.74780556
H      -2.56949155      2.54819753     -0.94427124
H      -2.11560683      2.82387109      0.72988002
H      -2.18209395      0.40287607      1.19791835
H      -3.69899805      1.00766159      0.61420844
H      -1.94015907     -0.12273039     -1.56362116
H      -3.66737517     -0.10756292     -1.35287288
H      -3.35434305     -2.30354335     -0.90777987
H      -3.13346011     -1.72871496      0.73153309
H      -1.45943643     -3.36090606      0.20038889
H      -1.00586041     -2.57816039     -1.29816024
H       0.40240951     -2.39301201      1.00780265
H      -0.63886370     -1.02995972      1.29376295
H       1.48325816     -1.54927770     -0.79533086
H       0.19612016     -0.54023821     -1.34037324
H       4.24251017      0.58461098     -1.57162196
