23
Clc1ccc(Oc2ccc(Cl)cc2)cc1
Cl     -5.04504763     -0.45454072     -1.73308963
C      -3.58252295     -0.13583171     -0.88480427
C      -2.63739169     -1.15000445     -0.73008819
C      -1.44989222     -0.89267570     -0.04135179
C      -1.20986473      0.38450776      0.47422247
O      -0.07791123      0.69433416      1.19299633
C       1.13194754      0.30987580      0.66160119
C       2.04410232     -0.28855324      1.53249329
C       3.30297144     -0.67186802      1.06584127
C       3.64707741     -0.43947449     -0.26565546
Cl      5.19832087     -0.91140046     -0.84104334
C       2.74633516      0.17909430     -1.13271531
C       1.48688103      0.56301953     -0.66676939
C      -2.16776725      1.39064848      0.33747706
C      -3.35464977      1.13242963     -0.35105775
H      -2.82133409     -2.14118325     -1.13593008
H      -0.72523677     -1.69097230      0.09401350
H       1.77334076     -0.45946774      2.57108831
H       4.00873034     -1.14479786      1.74336632
H       3.02001046      0.37058511     -2.16683844
H       0.79576295      1.06243532     -1.34031671
H      -1.98823073      2.37455427      0.76279987
H      -4.09563121      1.91928559     -0.46331564
