35
CCCOP(=O)(OCCC)OCCC
C       4.71439367      0.69729185      0.24171441
C       3.47036916     -0.09019193      0.61124241
C       2.25526823      0.36402666     -0.18460280
O       1.13932260     -0.41422983      0.21290395
P      -0.27184420     -0.04471122     -0.46854063
O      -0.26983248     -0.02999798     -1.96456289
O      -1.29298043     -1.09199845      0.20403614
C      -1.18567668     -2.44016355     -0.21997355
C      -2.18281650     -3.27653808      0.56897489
C      -2.13223441     -4.74054083      0.17094839
O      -0.66248404      1.35242564      0.22886673
C      -1.88858025      1.93943368     -0.16975865
C      -2.08802277      3.25542590      0.57154806
C      -1.01819906      4.28143700      0.22523465
H       4.57631866      1.76482066      0.44079486
H       4.95613529      0.57377931     -0.81876067
H       5.57108494      0.35053730      0.82795697
H       3.64260523     -1.15978986      0.44125062
H       3.26784911      0.01556249      1.68380998
H       2.42610316      0.22467707     -1.25729271
H       2.04748084      1.42253775      0.00469708
H      -1.40152855     -2.49749255     -1.29207168
H      -0.16481520     -2.79658089     -0.04629218
H      -3.19512741     -2.88375869      0.41548585
H      -1.97992869     -3.17529082      1.64190813
H      -1.13868107     -5.16240273      0.35313843
H      -2.37015140     -4.86695741     -0.89004946
H      -2.85796359     -5.31727427      0.75278829
H      -2.70833594      1.25425422      0.06987525
H      -1.88002278      2.10721593     -1.25197939
H      -2.05936091      3.07590343      1.65258625
H      -3.07420363      3.66494419      0.32688871
H      -1.20970493      5.21964890      0.75553221
H      -0.02174240      3.93046335      0.51155678
H      -1.01269360      4.49353376     -0.84867637
