20
COc1cccc(C(N)=O)c1
C       3.31206430     -0.73283694     -0.33825810
O       1.95521742     -1.15869708     -0.37309340
C       1.00046758     -0.20233429     -0.15853623
C       1.23770232      1.14428950      0.12227405
C       0.16651485      2.02145984      0.31113752
C      -1.14478302      1.55391908      0.22799503
C      -1.39272705      0.20278977     -0.03757919
C      -2.80642998     -0.25210381     -0.11465072
N      -3.05485744     -1.58565816      0.05853370
O      -3.72696291      0.53616221     -0.29109164
C      -0.31585633     -0.66856075     -0.24070388
H       3.94113132     -1.60469789     -0.54209865
H       3.58045221     -0.35304040      0.65304738
H       3.51265117      0.01174592     -1.11572951
H       2.24310325      1.54601668      0.19510501
H       0.35355509      3.07183469      0.52141385
H      -1.97394542      2.24416606      0.37277324
H      -2.37734612     -2.21404230      0.46509424
H      -4.03021560     -1.84795856      0.12372373
H      -0.47973564     -1.71245358     -0.49026343
