33
O=C(C1CCC1)N(O)C1CCCCC1
O      -1.12108387     -1.03882657     -1.66338681
C      -1.30453777     -0.72682012     -0.48026751
C      -2.70615565     -0.38864273      0.10556684
C      -3.14172944      1.10319554      0.08583284
C      -4.57544307      0.61607645     -0.19272421
C      -3.95047974     -0.65891414     -0.78845772
N      -0.24605877     -0.70592949      0.43467593
O      -0.49022738      0.08087230      1.58845141
C       1.13646925     -0.56878125     -0.04501119
C       2.14932215     -1.01462199      1.01998227
C       3.58509195     -0.88349988      0.51764969
C       3.88179336      0.53108410      0.02858203
C       2.88144278      0.98178257     -1.03176018
C       1.44097312      0.85503501     -0.54095910
H      -2.84752615     -0.84360784      1.09802202
H      -3.00691696      1.64917113      1.02327932
H      -2.70501029      1.68816873     -0.73214078
H      -5.16064231      1.22775688     -0.88358029
H      -5.16409984      0.43641215      0.71415089
H      -3.76441917     -0.59168781     -1.86660381
H      -4.48992663     -1.58674415     -0.58014497
H      -0.53342426     -0.60544126      2.28036783
H       1.23738398     -1.24769993     -0.90272354
H       1.95468196     -2.05504292      1.30715597
H       2.03423258     -0.41375146      1.93098479
H       3.75253578     -1.59563526     -0.29972986
H       4.28185859     -1.14950370      1.32051904
H       4.89719169      0.57375948     -0.38122664
H       3.85029414      1.22475827      0.87781146
H       3.08470554      2.02164372     -1.31148655
H       3.01201850      0.37634313     -1.93716954
H       1.27096391      1.57876219      0.26636811
H       0.75672203      1.13032887     -1.35223975
