8
O=C(O)CCl
O       0.86591473      1.46160157     -0.17420574
C       0.49936631      0.30149648     -0.09772367
O       1.40095325     -0.69351420     -0.26637167
C      -0.88074152     -0.24083607      0.17088350
Cl     -2.05314578      1.07320016      0.39010212
H       2.24420252     -0.21863825     -0.43121687
H      -0.86832961     -0.83719857      1.08644291
H      -1.20821990     -0.84611111     -0.67791057
