15
CC1(CCO)N=N1
C      -1.42631219      0.92262060      0.04302141
C      -0.83977257     -0.43858439      0.23347601
C       0.30167956     -0.86353488     -0.64899626
C       1.56711792     -0.06077392     -0.37646355
O       1.48980333      1.21739639     -0.99907049
N      -1.73091873     -1.49432817      0.73207351
N      -0.93205712     -1.04084803      1.56835078
H      -2.39326000      1.02074309      0.54870887
H      -1.58592877      1.13000199     -1.01988727
H      -0.76103294      1.68999676      0.45050867
H       0.51982955     -1.92495786     -0.47732683
H       0.00057326     -0.75896097     -1.69788885
H       1.72772712      0.08854190      0.69580598
H       2.44313203     -0.57619388     -0.78371177
H       1.61941954      1.08888136     -1.95515245
