11
C1=CCC=C1
C       1.04876210     -0.73895300      0.13070018
C      -0.19343686     -1.15400977     -0.15521863
C      -1.12023110      0.02461406     -0.21731001
C      -0.18839222      1.16239946      0.08114892
C       1.05188019      0.69279715      0.27679643
H       1.92289895     -1.36289645      0.23882204
H      -0.49301678     -2.17805745     -0.31805861
H      -1.90836936     -0.05067802      0.53737406
H      -1.56526257      0.12700156     -1.21121271
H      -0.48348333      2.19951335      0.12863084
H       1.92865098      1.27826912      0.50832749
