18
Cc1cc(O)ccc1N
C       2.19280804     -0.69727042     -0.05809586
C       0.73373375     -0.33438528     -0.05509219
C      -0.19825589     -1.25899987     -0.55634975
C      -1.54986498     -0.94022785     -0.60458699
O      -2.40704712     -1.87454845     -1.10532199
C      -2.00054555      0.29815287     -0.17162905
C      -1.08063410      1.21942599      0.33353559
C       0.28022555      0.89955052      0.44742865
N       1.17622874      1.89924159      0.85756367
H       2.56850348     -0.76135029      0.96810941
H       2.36643644     -1.66700919     -0.53667920
H       2.77062013      0.04868529     -0.61333347
H       0.12778826     -2.22783712     -0.92620093
H      -3.30553720     -1.50658373     -1.09281222
H      -3.04889805      0.57078252     -0.22819235
H      -1.43583981      2.19900562      0.64306643
H       0.76040224      2.59270344      1.47086723
H       2.04987606      1.54066436      1.22772303
