9
O=S([O-])CO.[Na+]
O       0.16536099     -1.33923612      1.30746540
S       1.07615053     -0.55211048      0.38972664
O       1.89656090      0.52202370      1.06397921
C      -0.19025318      0.46924210     -0.50515056
O      -1.32396520     -0.30938892     -0.88658314
Na      0.00000000      0.00000000      0.00000000
H       0.27711335      0.90530111     -1.39093148
H      -0.52727892      1.26022430      0.17045273
H      -1.37368848     -0.95605568     -0.14895880
