16
OCc1ccc(I)cc1
O      -2.76682030     -0.64870972      0.56257524
C      -2.12275730      0.29453082     -0.28246941
C      -0.62646286      0.17812568     -0.16556872
C       0.06906326      0.91275533      0.80481358
C       1.45400141      0.78322479      0.93420273
C       2.14865040     -0.08980428      0.09814660
I       4.20897712     -0.28444716      0.29008162
C       1.46838971     -0.83648319     -0.86280257
C       0.08343803     -0.70541083     -0.99048262
H      -2.07829031     -1.15614884      1.02545480
H      -2.45770191      1.29912080     -0.00343606
H      -2.44721606      0.11832282     -1.31345246
H      -0.46600406      1.59091368      1.46714577
H       1.97369843      1.36623822      1.69032491
H       1.99937341     -1.52401617     -1.51630471
H      -0.44033898     -1.29821196     -1.73822870
