18
COC(=O)C=C(C)C
C       3.38186764     -0.37332198     -0.74858400
O       2.18082411     -0.74378879     -0.07108116
C       1.14907417      0.11612167     -0.27767211
O       1.18282742      1.12695224     -0.95641905
C      -0.01441715     -0.39575682      0.48755601
C      -1.29214629      0.02011561      0.38342219
C      -1.80597322      1.05666561     -0.57836877
C      -2.35365847     -0.56920867      1.27583481
H       4.14329917     -1.12533313     -0.52386636
H       3.73915018      0.59808379     -0.39251473
H       3.22218717     -0.35542258     -1.83130922
H       0.24047878     -1.17101724      1.20512312
H      -2.01638271      1.99063768     -0.04774575
H      -2.73658116      0.71036423     -1.04197671
H      -1.12069822      1.27129236     -1.39979266
H      -1.94660853     -1.30393584      1.97861187
H      -2.83449385      0.22000400      1.86319843
H      -3.11874903     -1.07245215      0.67558411
