18
Clc1cc(Cl)c2c(Cl)ccc(Cl)c2c1
Cl      4.05890277     -1.13551193      0.07130661
C       2.49590728     -0.41972390      0.05910487
C       2.36353816      0.95002529      0.12973566
C       1.08800525      1.52964073      0.11951202
Cl      1.12792227      3.26164233      0.21561605
C      -0.11803242      0.74527703      0.03691689
C      -1.47774445      1.21724873      0.01803245
Cl     -1.94294334      2.88603237      0.09407903
C      -2.57129010      0.34431787     -0.06571250
C      -2.37354896     -1.02210029     -0.13400230
C      -1.07799500     -1.52730387     -0.11904839
Cl     -0.94648678     -3.25751726     -0.20944626
C       0.05697213     -0.67603768     -0.03512453
C       1.36504969     -1.21941670     -0.02185286
H       3.25174923      1.57493243      0.19315657
H      -3.58851070      0.73220212     -0.07793254
H      -3.23125215     -1.68751300     -0.19862984
H       1.51975711     -2.29619430     -0.07571092
