38
CC(C)OC(=O)C(O)(c1ccc(Br)cc1)c1ccc(Br)cc1
C       3.54699431     -0.60858220      1.31006502
C       2.80911866     -1.21410915      0.12246452
C       2.62021415     -2.71450705      0.31102564
O       1.52315240     -0.57087662      0.05354596
C       0.92794650     -0.52765522     -1.17269912
O       1.38081820     -1.05926930     -2.18536469
C      -0.42680585      0.23816353     -1.15848996
O      -0.75200523      0.50416470     -2.54625396
C      -0.27680741      1.59120000     -0.43878193
C      -0.43022391      1.69555684      0.95804235
C      -0.26208003      2.91902109      1.61285714
C       0.06988892      4.05505137      0.88099143
Br      0.29899012      5.70909528      1.76613481
C       0.23819678      3.97893107     -0.49811763
C       0.07013347      2.75472180     -1.15163779
C      -1.61445707     -0.59535708     -0.64620873
C      -2.92600089     -0.10366619     -0.82394413
C      -4.03835321     -0.81420819     -0.36670994
C      -3.85712634     -2.03236788      0.27799751
Br     -5.35616793     -2.99976624      0.90091183
C      -2.57613139     -2.54320296      0.46742896
C      -1.46242237     -1.83012043      0.00901849
H       2.98413690     -0.75352923      2.23894816
H       4.54118086     -1.04995710      1.42856051
H       3.65870081      0.47302890      1.17671213
H       3.38870577     -1.01228872     -0.78648375
H       2.01449996     -2.92421678      1.19959919
H       3.58264400     -3.22504442      0.41363120
H       2.08814670     -3.15087739     -0.54048618
H      -0.36976696     -0.23933891     -3.05269282
H      -0.68006401      0.82037795      1.55560967
H      -0.39084626      2.97159288      2.69078281
H       0.49901284      4.86190128     -1.07569215
H       0.20748856      2.71859595     -2.23157897
H      -3.08255293      0.84913428     -1.33049718
H      -5.03416329     -0.40735690     -0.52108350
H      -2.43118194     -3.49616654      0.97050423
H      -0.48281290     -2.26807242      0.18189086
