37
COCCOCCOCCOCCOC
C       6.54047325     -1.19484064     -1.58013354
O       6.66578775     -0.29303426     -0.48892645
C       5.42126666      0.28508397     -0.09392222
C       4.60520986     -0.65407519      0.79774246
O       3.41746324     -0.03326694      1.29232936
C       2.34929779     -0.03809572      0.34640710
C       1.11678353      0.60337488      0.97554170
O       0.04734533      0.59857888      0.02943054
C      -1.13147179      1.19396694      0.57293152
C      -2.23417395      1.18402051     -0.48452708
O      -3.43304180      1.78597901      0.00365171
C      -4.28381481      0.88096876      0.70826974
C      -5.22370167      0.14265332     -0.24323934
O      -6.05069546     -0.74577823      0.50752871
C      -6.96972501     -1.43577722     -0.32935530
H       5.92613592     -2.05703305     -1.30787669
H       7.53932221     -1.55400049     -1.84271697
H       6.11478947     -0.68768852     -2.45128654
H       5.64920051      1.19587352      0.47146977
H       4.85549754      0.61040181     -0.97398202
H       5.21401622     -0.93048432      1.66613043
H       4.36165127     -1.59357648      0.28930885
H       2.63021444      0.51670420     -0.55524696
H       2.11647996     -1.06684171      0.04656564
H       1.34726998      1.63205173      1.27764957
H       0.82616733      0.04696378      1.87469696
H      -0.92539025      2.22621473      0.88039159
H      -1.44845000      0.63844445      1.46242278
H      -1.90097290      1.77097616     -1.34801423
H      -2.41419171      0.16943461     -0.85849001
H      -4.88351098      1.47295388      1.40900875
H      -3.70791994      0.17733299      1.32047558
H      -5.84252357      0.86760947     -0.78560598
H      -4.65061719     -0.42552392     -0.98429064
H      -7.63654805     -0.72806512     -0.83123787
H      -7.57229027     -2.10035791      0.29552951
H      -6.43533294     -2.04019032     -1.06863044
