56
CCCCCCCCCCCCCCCCOP(=O)([O-])O.[K+]
C      -7.16787583      1.56161233      2.33889199
C      -5.95553422      0.79078019      1.83878554
C      -6.36376860     -0.32894343      0.88076418
C      -5.18961867     -1.20337555      0.43178011
C      -4.17425557     -0.45804227     -0.43718032
C      -3.07841374     -1.40107843     -0.94123125
C      -2.06090240     -0.65467356     -1.80630648
C      -0.99381967     -1.56807102     -2.41665474
C      -0.12798901     -2.34172460     -1.41681640
C       0.59436310     -1.49645802     -0.36195026
C       1.58091519     -0.49088675     -0.96122244
C       2.29251900      0.36675330      0.09200128
C       3.26205356     -0.42745153      0.97057096
C       3.97706460      0.43236533      2.01879878
C       4.84878099      1.56420003      1.47335663
C       5.95494997      1.09314288      0.53696605
O       6.76106170      2.20876633      0.20183558
P       7.84389491      1.97294128     -0.97621799
O       8.41487257      0.58653206     -0.94040402
O       8.68698704      3.20881290     -1.12021563
O       6.85429334      2.08887777     -2.24354762
K       0.00000000      0.00000000      0.00000000
H      -6.85558410      2.35421295      3.02654562
H      -7.70749250      2.02596696      1.50695699
H      -7.85977498      0.90207255      2.87286459
H      -5.41852412      0.37001084      2.69673073
H      -5.27736719      1.49152638      1.34045998
H      -7.09907059     -0.97401838      1.37804143
H      -6.86230920      0.09762584      0.00192548
H      -4.68731560     -1.62476493      1.31107642
H      -5.59287878     -2.05031028     -0.13738587
H      -3.71109546      0.35241463      0.13622049
H      -4.68765401     -0.00118298     -1.29151248
H      -2.57759112     -1.85789982     -0.08066708
H      -3.53032811     -2.21260341     -1.52361024
H      -1.58547926      0.14003475     -1.22039364
H      -2.58918545     -0.15517029     -2.62826938
H      -0.34797496     -0.96513214     -3.06583964
H      -1.48561402     -2.29368602     -3.07692230
H      -0.74900399     -3.08431074     -0.90111434
H       0.61779165     -2.91643945     -1.98104741
H       1.13049560     -2.18762227      0.29797126
H      -0.13507368     -0.97347339      0.26665280
H       2.32468706     -1.01749421     -1.57115058
H       1.04528010      0.18987513     -1.63218594
H       2.84229405      1.15134597     -0.44020322
H       1.54847266      0.87070201      0.72060395
H       2.71448727     -1.20897677      1.50914110
H       3.99724043     -0.94352732      0.34268486
H       4.60164254     -0.22641643      2.63535261
H       3.22813457      0.86521120      2.69400080
H       4.23330223      2.31601043      0.96553408
H       5.30316008      2.09570132      2.31944431
H       5.53194907      0.66172229     -0.37542382
H       6.57692680      0.34039539      1.03246470
H       7.10387473      2.96412096     -2.58964833
