29
COc1ccc(O)c(C(C)(C)C)c1
C       3.65613151     -1.33164309     -0.35376365
O       3.46950170      0.07217292     -0.47923208
C       2.19314944      0.54648962     -0.34451839
C       2.07455756      1.92642020     -0.47731922
C       0.83008342      2.53681195     -0.36206363
C      -0.30549637      1.76175438     -0.11199043
O      -1.51026339      2.39967410     -0.00552750
C      -0.23463342      0.36197586      0.02993905
C      -1.48602690     -0.50313615      0.30671596
C      -2.14255971     -0.08873080      1.64254278
C      -1.18313462     -2.01927121      0.42743600
C      -2.50568845     -0.35935462     -0.84515973
C       1.04846554     -0.22116540     -0.09392001
H       4.72212941     -1.54008002     -0.48669228
H       3.11172889     -1.87373808     -1.13402064
H       3.37132782     -1.68027393      0.64442744
H       2.95825575      2.52849720     -0.67180784
H       0.76494643      3.61499324     -0.46984277
H      -1.37841669      3.35333444     -0.12852843
H      -2.53910362      0.93027174      1.62382822
H      -2.98492058     -0.74626745      1.88858358
H      -1.42353668     -0.14658898      2.46833291
H      -2.09829873     -2.59149477      0.62327393
H      -0.74891076     -2.41999951     -0.49606609
H      -0.49354157     -2.22968517      1.25337616
H      -2.91190970      0.65243513     -0.93018582
H      -3.36261790     -1.02774557     -0.69891429
H      -2.04789222     -0.61189504     -1.80896307
H       1.15667385     -1.29376096      0.00696480
