27
C[N+](C)=CCC(O)CC(N)=O.[Cl-]
C       2.32234061     -0.91772436      0.94001494
N       1.87909026      0.22768050      0.09829269
C       2.46134401      1.54658193      0.48768691
C       1.01602756      0.18749826     -0.86401484
C       0.25897519     -1.05244554     -1.24813697
C      -0.96651589     -1.35865099     -0.37515339
O      -0.55453009     -1.55240149      0.97425120
C      -2.15758978     -0.39810233     -0.48382205
C      -1.95767525      1.00144881      0.06166790
N      -3.06641968      1.79158669     -0.00796602
O      -0.90195253      1.44100010      0.50048781
Cl      0.00000000      0.00000000      0.00000000
H       1.85595021     -0.81675850      1.92317981
H       3.41062360     -0.86372977      1.03704524
H       2.06266137     -1.87277450      0.48444369
H       2.24637879      1.71356375      1.54655332
H       2.02105955      2.35001157     -0.10950328
H       3.53991212      1.50336048      0.31539620
H       0.77532204      1.12074681     -1.40037152
H      -0.06299309     -0.92084519     -2.28846328
H       0.93874980     -1.91071438     -1.24726334
H      -1.33359366     -2.33661609     -0.71420325
H      -1.31962314     -1.88944398      1.48009153
H      -2.46221181     -0.31239997     -1.53362928
H      -2.99757881     -0.82958490      0.07619579
H      -3.99155907      1.42995865     -0.20579783
H      -3.01619233      2.71875443      0.39956909
