20
Oc1cc2ccccc2cc1O
O      -2.84628852      2.04276992     -0.05108371
C      -1.81907249      1.14269375     -0.02602946
C      -0.51199777      1.60619145     -0.05956430
C       0.55268064      0.69189028     -0.03434665
C       1.88611868      1.12886919     -0.06709698
C       2.93803213      0.21206283     -0.04163593
C       2.67109447     -1.15263865      0.01685738
C       1.35109136     -1.60590764      0.05012432
C       0.27911377     -0.69909990      0.02529225
C      -1.05458308     -1.14457242      0.05839223
C      -2.09204620     -0.21942681      0.03242601
O      -3.40497731     -0.60294570      0.06277159
H      -3.65400891      1.49234656     -0.01962856
H      -0.33093276      2.67631158     -0.10511535
H       2.11493795      2.19153398     -0.11287633
H       3.96565087      0.56537946     -0.06754751
H       3.49094145     -1.86607640      0.03665558
H       1.16695223     -2.67690976      0.09575005
H      -1.26692021     -2.20821470      0.10403297
H      -3.43578632     -1.57425701      0.10262239
