15
CC/C(C)=N/O
C      -1.94009355      0.23295744     -0.03888488
C      -0.73262860      0.23571897     -0.95770843
C       0.54743211      0.13231143     -0.15470945
C       0.93851291     -1.22385229      0.38279486
N       1.22251890      1.22166382      0.06497297
O       2.35672768      0.96949885      0.84396065
H      -1.89461895      1.06553033      0.67104030
H      -1.99500192     -0.69447038      0.54050484
H      -2.86218954      0.32729655     -0.62046085
H      -0.71570956      1.15919606     -1.54701670
H      -0.78237697     -0.60422445     -1.65831109
H       0.28865697     -2.00132748     -0.02726297
H       1.97053451     -1.45340935      0.10408092
H       0.84336489     -1.22315244      1.47207736
H       2.75487114      1.85626295      0.92492247
