8
N#C[S-].[NH4+]
N      -1.37190959     -0.10016797      0.00000000
C      -0.21264646     -0.05882808      0.00000000
S       1.58455605      0.00526110      0.00000000
N       0.00000000      0.00000000      0.00000000
H       0.93848350     -0.17379340     -0.37852365
H      -0.31029712      0.94003449     -0.27255540
H       0.02598239     -0.06830651      1.02415561
H      -0.65416877     -0.69793458     -0.37307656
