43
CC(O)C1C(=O)N2C(C(=O)O)=C(SCC(=N)N(C)C)C(C)C12
C      -4.31867379      1.74545256     -0.65267840
C      -3.78885078      0.32270502     -0.52806054
O      -3.91128769     -0.32656849     -1.79560518
C      -2.31768241      0.32093708     -0.14662436
C      -2.01056407      0.66456723      1.31911245
O      -2.04119656      1.63253131      2.04542106
N      -1.55117722     -0.59507934      1.59803068
C      -0.22379606     -0.76798528      1.96118442
C       0.25792353     -0.40366162      3.32626319
O       1.20856838     -0.94038557      3.87969282
O      -0.45813062      0.56658462      3.93707351
C       0.52529825     -1.24537058      0.95285998
S       2.23514152     -1.46964104      0.90905748
C       2.79885603      0.26405554      0.97296450
C       2.46396384      0.97465778     -0.35091865
N       1.34243896      1.62991932     -0.36274443
N       3.32298540      0.90641673     -1.45270507
C       2.79765827      0.98771785     -2.82131738
C       4.58246299      0.15302783     -1.36783503
C      -0.30879875     -1.47102894     -0.28768307
C      -0.31213104     -2.92242908     -0.76464437
C      -1.71447755     -1.07667503      0.19161132
H      -5.30967368      1.75289715     -1.11648680
H      -4.38078414      2.23046916      0.32519266
H      -3.66388742      2.35117585     -1.28507914
H      -4.38974230     -0.24184145      0.19646252
H      -4.86542293     -0.50708358     -1.94415248
H      -1.70037443      0.90044540     -0.84515916
H      -1.09271809      1.04577725      3.35410838
H       2.31927728      0.79447294      1.80160406
H       3.87326885      0.28358069      1.16657855
H       1.23971529      2.12947728     -1.24689207
H       2.31060486      0.04642537     -3.09945504
H       2.08622763      1.81176850     -2.95810130
H       3.61423111      1.18326213     -3.52796989
H       4.38028561     -0.91898441     -1.25778248
H       5.19428680      0.28898253     -2.26821761
H       5.19292457      0.50368305     -0.52694054
H       0.01666026     -0.81932640     -1.10723159
H      -0.58650994     -3.61343830      0.04400644
H       0.67118803     -3.21785112     -1.14391224
H      -1.03962919     -3.06092167     -1.57446122
H      -2.44845880     -1.89271827      0.15755275
