43
CCCCCCCCCCNC(=O)C(C)O
C       5.65215705      2.01165970     -1.71064864
C       5.90002505      0.71523784     -0.95508535
C       4.61999586     -0.05898660     -0.63345539
C       3.69756997      0.67351662      0.34361590
C       2.48666649     -0.18765803      0.71395700
C       1.56046927      0.54784520      1.68508172
C       0.39152928     -0.30930566      2.17918478
C      -0.59682384     -0.68698854      1.07273271
C      -1.80245150     -1.44122942      1.64401111
C      -2.78230461     -1.89391917      0.56446043
N      -3.49482108     -0.78871310     -0.03758927
C      -4.63456855     -0.99054455     -0.79291196
O      -5.19170183     -2.07670724     -0.90710233
C      -5.10417071      0.29238244     -1.50697002
C      -6.59393036      0.26060090     -1.80591961
O      -4.79349717      1.46021866     -0.74624190
H       6.60561778      2.46790394     -1.99582049
H       5.10959162      2.73657400     -1.09695482
H       5.07688054      1.83065307     -2.62405886
H       6.54819265      0.07531737     -1.56572597
H       6.44828280      0.93081741     -0.03064736
H       4.90472773     -1.02619649     -0.20093127
H       4.07839415     -0.27578687     -1.56229240
H       3.34689770      1.61122931     -0.10185746
H       4.25558466      0.93234726      1.25151001
H       2.82810198     -1.12459205      1.17021574
H       1.94197882     -0.44949387     -0.19996590
H       2.14081167      0.86929587      2.55893002
H       1.17406942      1.45832224      1.21102009
H       0.77821226     -1.21771104      2.65694940
H      -0.13990570      0.25422315      2.95621002
H      -0.10145150     -1.31895211      0.32733064
H      -0.92985847      0.22220998      0.55981746
H      -1.44354726     -2.32853107      2.17978019
H      -2.32170834     -0.80976484      2.37531204
H      -2.26540143     -2.43549753     -0.23556340
H      -3.51842470     -2.57832187      1.00142271
H      -3.02893615      0.10391391     -0.17199025
H      -4.54505204      0.35904619     -2.44678692
H      -7.17528447      0.17544750     -0.88093926
H      -6.90801308      1.18795981     -2.29631556
H      -6.85547846     -0.58418570     -2.45068416
H      -5.31842548      1.40636340      0.07306366
