47
CCCNC(=O)c1nnc2c(-c3cc(C)cc(C)c3)cccc2c1N
C      -4.66556758     -3.43830657     -0.77402835
C      -5.52287276     -2.46698384      0.02489818
C      -4.89068301     -2.08676782      1.36222727
N      -3.65833180     -1.34755135      1.20333293
C      -3.62788136      0.01143246      0.95092568
O      -4.63610937      0.71138810      0.90306382
C      -2.26305538      0.58310275      0.70746558
N      -1.28074953     -0.33580719      0.58829401
N      -0.00346982      0.07844188      0.32924230
C       0.31483710      1.38334023      0.21305690
C       1.64895303      1.77992443     -0.02046916
C       2.73621895      0.79117404     -0.17716175
C       3.81041611      0.75516802      0.72824911
C       4.85695809     -0.16564623      0.58126622
C       6.01037227     -0.16193870      1.54031672
C       4.83920156     -1.05089594     -0.50237262
C       3.77428264     -1.04896372     -1.41026832
C       3.76989246     -1.98855951     -2.57955499
C       2.73759082     -0.11999625     -1.24597059
C       1.97162477      3.14778661     -0.10597734
C       0.99432330      4.11929759      0.04347822
C      -0.32235823      3.73289023      0.26801100
C      -0.69391826      2.36981607      0.34297382
C      -2.03699272      1.95546078      0.55233585
N      -3.06202476      2.91491712      0.77397392
H      -3.70450698     -2.99111867     -1.04645537
H      -4.47139045     -4.35146897     -0.20245862
H      -5.17845928     -3.72018809     -1.69908034
H      -5.70597480     -1.57001035     -0.57798552
H      -6.49697384     -2.93247755      0.21473321
H      -4.66298292     -2.98048759      1.95238066
H      -5.59342453     -1.47217906      1.93565298
H      -2.77772255     -1.85171449      1.13836580
H       3.82803850      1.45092799      1.56563274
H       5.68582400      0.14427183      2.54037174
H       6.78412741      0.52900907      1.19190949
H       6.44507508     -1.16275254      1.63314748
H       5.65932279     -1.75370066     -0.63692879
H       4.29279357     -2.91927150     -2.33550628
H       4.26257272     -1.52050323     -3.43727017
H       2.74612571     -2.25651839     -2.86123307
H       1.91687698     -0.10623175     -1.96161351
H       2.99988598      3.45438040     -0.29213404
H       1.25512009      5.17316383     -0.01259051
H      -1.06288629      4.51850857      0.39942846
H      -3.02521829      3.71269520      0.14884336
H      -3.99687940      2.48294277      0.76746641
