17
OCc1nc2ncncc2[nH]1
O       3.20716834     -0.36257252      0.36383589
C       2.51361687      0.78817376     -0.11689090
C       1.05698034      0.53462938      0.02480896
N       0.07159219      1.34903199     -0.30441602
C      -1.07759879      0.67416096      0.01210396
N      -2.32906724      1.13701878     -0.15963686
C      -3.26084660      0.25971865      0.23932702
N      -3.07784743     -0.97200162      0.76631741
C      -1.81237272     -1.41124783      0.92756689
C      -0.79344077     -0.57106813      0.54267001
N       0.56751493     -0.64302888      0.54344074
H       4.15432766     -0.16350059      0.25694832
H       2.77600849      0.94831299     -1.16650826
H       2.81254035      1.65678467      0.47670016
H      -4.29299137      0.57733338      0.12533216
H      -1.66947163     -2.39709129      1.34943843
H       1.15388739     -1.40465372      0.85878101
