16
O=CC(=O)c1ccccc1
O       2.61357879     -1.84213885      0.29718026
C       2.89066453     -0.66271246      0.16716954
C       1.86911852      0.44014577      0.00689450
O       2.33509204      1.57242301     -0.11058198
C       0.39767885      0.21799450     -0.01300352
C      -0.20573222     -1.03769959      0.11390675
C      -1.59968847     -1.15913019      0.08473180
C      -2.40196199     -0.03095300     -0.07111349
C      -1.81443213      1.22412809     -0.19850386
C      -0.42344077      1.34796760     -0.16963588
H       3.93032225     -0.29675034      0.15578555
H       0.37111781     -1.94864720      0.23741826
H      -2.05828383     -2.14060086      0.18436455
H      -3.48440566     -0.13104905     -0.09318636
H      -2.43608738      2.10779851     -0.32041599
H       0.01645966      2.33922405     -0.27101014
