15
NC(CO)CO
N      -0.32800712      1.12150319      1.00990660
C      -0.07859592     -0.24980709      0.49704874
C      -1.03177915     -0.60198236     -0.65567081
O      -0.95653161      0.39023583     -1.67827955
C       1.39318936     -0.33795196      0.05632371
O       2.23196234      0.04699448      1.14729314
H      -1.29557507      1.17553063      1.33003891
H      -0.30551089      1.74020115      0.19020062
H      -0.23651004     -0.94509398      1.32962915
H      -0.77475283     -1.57362023     -1.08987170
H      -2.06580987     -0.64029564     -0.29673057
H      -1.56591748      0.11634363     -2.38624910
H       1.65656108     -1.36010855     -0.23232336
H       1.60953107      0.32746568     -0.78623040
H       1.74774614      0.79058523      1.56491462
