44
CCCNC(=O)c1nnc2c(-c3cnccc3OC)cccc2c1N
C       4.94261435     -1.25879975      2.39598283
C       5.58967785     -0.85844894      1.07774668
C       5.00611928     -1.61050821     -0.11663996
N       3.61549506     -1.28993750     -0.34893466
C       3.21269832     -0.15654197     -1.03063753
O       3.99767105      0.63434248     -1.54738224
C       1.73019693      0.06523099     -1.07718320
N       1.01036415     -0.77376604     -0.30054250
N      -0.34770431     -0.63192432     -0.24021946
C      -0.99820355      0.30362168     -0.95954646
C      -2.40292244      0.39806862     -0.90028166
C      -3.19651002     -0.50530880     -0.04155350
C      -3.27638718     -1.86901842     -0.33191711
N      -3.99396102     -2.77163248      0.37733294
C      -4.66040193     -2.29893156      1.44686054
C      -4.65001051     -0.97022799      1.83938983
C      -3.90759539     -0.05796012      1.08793497
O      -3.81683918      1.28296741      1.37069710
C      -4.39379598      1.73771683      2.58789257
C      -3.07780479      1.35745829     -1.67818371
C      -2.37723108      2.21417661     -2.51295582
C      -0.99024927      2.12866561     -2.56979712
C      -0.27205516      1.19067942     -1.79126647
C       1.14553375      1.09897660     -1.81787520
N       1.90416201      1.90967440     -2.70502459
H       5.04379888     -2.33450723      2.57168802
H       5.42395563     -0.73301572      3.22670417
H       3.87795080     -1.00562116      2.41089063
H       6.66406667     -1.06797031      1.13594115
H       5.47906059      0.22302478      0.93727925
H       5.57598299     -1.36030493     -1.01832484
H       5.07185555     -2.69276173      0.03590618
H       2.89320385     -1.83339770      0.11661961
H      -2.74589293     -2.29039575     -1.18310934
H      -5.22543558     -3.04132216      2.00369203
H      -5.22048800     -0.68571448      2.71366578
H      -5.48299524      1.62876601      2.57020830
H      -3.95741325      1.22387546      3.45083453
H      -4.16814639      2.80390603      2.68643735
H      -4.16333005      1.43000968     -1.63161784
H      -2.90755883      2.94471092     -3.11859488
H      -0.47050470      2.80267253     -3.24680823
H       1.60497015      2.87822999     -2.73898236
H       2.91405890      1.84124291     -2.51522517
