29
CCS(=O)(=O)CCn1c([N+](=O)[O-])cnc1C
C       4.65402216      0.03350062      0.15197493
C       3.26266668      0.58584952     -0.08203093
S       2.00234475     -0.59552210      0.36984142
O       2.08372590     -1.72256851     -0.53915405
O       2.04920679     -0.78933285      1.80481070
C       0.49270484      0.26075863     -0.00850618
C      -0.69278858     -0.56454717      0.46118263
N      -1.95579202     -0.06303207     -0.05746341
C      -2.80698725      0.86242996      0.49143169
N      -2.58184095      1.59919307      1.68425536
O      -1.41385761      1.71022661      2.07190533
O      -3.57519708      2.09691624      2.22384217
C      -3.89532915      0.92829635     -0.33889945
N      -3.72416403      0.08780579     -1.40582005
C      -2.56071941     -0.50725396     -1.22378419
C      -1.97415807     -1.52582836     -2.13669668
H       5.40953794      0.77276893     -0.13071039
H       4.82348058     -0.87187997     -0.43954778
H       4.80422075     -0.22327913      1.20546527
H       3.12010944      0.82965365     -1.13885968
H       3.10156615      1.48469564      0.52024512
H       0.52992564      1.23548381      0.48419759
H       0.47296076      0.42053919     -1.09141471
H      -0.75721476     -0.60650069      1.55349626
H      -0.59993572     -1.60793597      0.13891338
H      -4.78418606      1.53901760     -0.23708543
H      -2.57361895     -1.60904901     -3.04882349
H      -1.95461915     -2.50822350     -1.65547949
H      -0.95606357     -1.25218230     -2.42876045
