39
CCCCC(CC)COC(=O)c1ccccc1
C      -5.06993893      0.93884016      1.97448551
C      -4.50919467      0.25634490      0.73692564
C      -2.98345722      0.35770007      0.68367308
C      -2.42587608     -0.32421379     -0.57100747
C      -0.88468527     -0.41653555     -0.60078159
C      -0.38658483     -1.18670699     -1.84761234
C      -0.85058111     -2.63594706     -1.90908945
C      -0.23153234      0.98029717     -0.55403989
O       1.20383893      0.88858573     -0.57420566
C       1.79839432      0.67929032      0.62698026
O       1.22714678      0.57394853      1.70081769
C       3.27548034      0.58608464      0.46964065
C       3.90778862      0.68494203     -0.77765381
C       5.29863719      0.58830691     -0.86893114
C       6.06327030      0.39269387      0.28080073
C       5.44165917      0.29268372      1.52466707
C       4.05190723      0.38866382      1.62004766
H      -4.81232797      2.00270895      1.98664090
H      -4.67759759      0.47953016      2.88740977
H      -6.16092757      0.85337050      1.99291969
H      -4.81345207     -0.79679343      0.73954596
H      -4.94407622      0.71799626     -0.15720990
H      -2.55346908     -0.10838563      1.57830474
H      -2.70113786      1.41586183      0.69630041
H      -2.84908059     -1.33376891     -0.61784634
H      -2.78092585      0.20851920     -1.46223614
H      -0.55413291     -0.98054533      0.28121345
H      -0.70730094     -0.66824666     -2.75945033
H       0.70983291     -1.19455091     -1.86007221
H      -0.34908557     -3.15360287     -2.73345163
H      -1.92707210     -2.70918962     -2.08670959
H      -0.61135918     -3.16586365     -0.98189115
H      -0.54747803      1.55966387      0.31974090
H      -0.52291801      1.56041463     -1.43715641
H       3.33123922      0.83630016     -1.68673220
H       5.78556604      0.66547403     -1.83810813
H       7.14560861      0.31771042      0.20725884
H       6.03775685      0.13971677      2.42100576
H       3.57606548      0.30870176      2.59580670
