18
Nc1nc2[nH]c(=O)cnc2c(=O)[nH]1
N       3.15485035     -0.78190789      0.32456365
C       1.90534343     -0.32124295      0.07765215
N       0.87050491     -0.94306866      0.54177127
C      -0.35507941     -0.41366265      0.25086935
N      -1.40938393     -1.10713086      0.77482374
C      -2.70717998     -0.71905265      0.57990099
O      -3.69238655     -1.29027794      1.01590511
C      -2.86159980      0.53588293     -0.25634843
N      -1.86222581      1.19984094     -0.75457047
C      -0.60289257      0.69240385     -0.48098310
C       0.61396151      1.37650317     -1.01659443
O       0.57446347      2.37645865     -1.72762738
N       1.80930160      0.81229934     -0.66441728
H       3.16850450     -1.49494136      1.04786863
H       3.88143729     -0.08882602      0.44832642
H      -1.21658965     -1.93662856      1.31705096
H      -3.90089104      0.86031906     -0.42019576
H       2.62986168      1.24303161     -1.05799541
