24
CC(=O)Nc1ccc(S(N)(=O)=O)cc1
C       4.61819603      0.03575302     -0.39338640
C       3.21972000      0.60041416     -0.35304176
O       3.03358003      1.81174166     -0.35348094
N       2.25674351     -0.39064507     -0.28662216
C       0.85707024     -0.22593101     -0.23908198
C       0.21435858      1.01429548     -0.28649947
C      -1.18193954      1.09520188     -0.23667058
C      -1.93980586     -0.07154889     -0.12932984
S      -3.70444023      0.03265024     -0.09637651
N      -4.00549095      0.31084363      1.53134847
O      -4.12412131      1.22640709     -0.79162852
O      -4.26309025     -1.26829567     -0.38324022
C      -1.31506237     -1.31840955     -0.09404735
C       0.08029467     -1.39042418     -0.14601038
H       4.95505835     -0.16960087      0.62602687
H       5.28977986      0.76281020     -0.85908563
H       4.65277035     -0.88371354     -0.98486565
H       2.59122011     -1.34547845     -0.25629283
H       0.77118540      1.94308703     -0.36875488
H      -1.66285526      2.06995625     -0.28371223
H      -4.44279793      1.22504500      1.65085274
H      -4.54883611     -0.46014368      1.91999441
H      -1.90028317     -2.23287042     -0.02777994
H       0.54874586     -2.37114430     -0.11454751
