12
O=c1[nH]cc(Br)c(=O)[nH]1
O      -2.46642264      1.07517936      0.02582643
C      -1.34271957      0.58679255      0.01404052
N      -1.13979194     -0.76623561      0.02874642
C       0.09979710     -1.34721930      0.01630672
C       1.22089549     -0.61527442     -0.01167915
Br      2.91947834     -1.37154206     -0.02925541
C       1.07590165      0.87159702     -0.02910888
O       2.03513743      1.63652881     -0.05489954
N      -0.21020250      1.34939035     -0.01453882
H      -1.97854372     -1.33679498      0.04998961
H       0.11643298     -2.43274241      0.03048372
H      -0.32996260      2.35032069     -0.02591163
