26
CCOC(=O)CCCCC(=O)O
C      -4.62694193     -0.48859140      0.72555312
C      -4.02015600     -0.07374004     -0.60162202
O      -2.74670394      0.55333845     -0.38944879
C      -1.67558588     -0.28747139     -0.31927516
O      -1.72505929     -1.50503852     -0.41487033
C      -0.41952212      0.52333088     -0.09965520
C       0.82343647     -0.36170480     -0.02106438
C       2.08639566      0.46879745      0.20348467
C       3.32540006     -0.41492524      0.27895932
C       4.55644575      0.41952500      0.48027416
O       5.28639162      0.85190883     -0.39534016
O       4.79047792      0.69958718      1.77573033
H      -3.99995996     -1.23081459      1.22960609
H      -5.62366746     -0.91451557      0.58002080
H      -4.70503592      0.37185092      1.39821712
H      -4.66479701      0.66753743     -1.08518472
H      -3.93654030     -0.92387717     -1.28835345
H      -0.31854019      1.22950597     -0.93137040
H      -0.53427636      1.08433036      0.83454802
H       0.92222340     -0.94168591     -0.94724902
H       0.70896341     -1.08719334      0.79412252
H       2.20186975      1.19650808     -0.60959534
H       1.98852180      1.04877988      1.12969705
H       3.24966647     -1.14262227      1.09508501
H       3.45477371     -0.99165124     -0.64408166
H       5.60222034      1.24883105      1.75763667
