22
Clc1cc(Cl)cc(-c2c(Cl)cc(Cl)cc2Cl)c1
Cl     -3.63762913      2.72732285      0.62560816
C      -2.79931070      1.22714883      0.53436831
C      -3.50734008      0.03436983      0.64388892
C      -2.81829773     -1.17209852      0.56854437
Cl     -3.68022780     -2.65561259      0.70228662
C      -1.43460740     -1.19318565      0.38554856
C      -0.71469410      0.00700591      0.27435443
C       0.74557493     -0.00730376      0.08112136
C       1.31486207     -0.03020358     -1.20976318
Cl      0.33091673     -0.04273756     -2.63615385
C       2.70097774     -0.04380965     -1.39455695
C       3.54328441     -0.03472576     -0.28909264
Cl      5.24802492     -0.05143656     -0.51467700
C       3.01780461     -0.01223441      0.99736750
C       1.63133153      0.00133542      1.17946355
Cl      1.05264613      0.02918654      2.81263320
C      -1.41550116      1.22111860      0.35115742
H      -4.58412585      0.04492072      0.78637255
H      -0.91530363     -2.14795653      0.32936459
H       3.11954022     -0.06142378     -2.39818519
H       3.68324221     -0.00524571      1.85755259
H      -0.88116794      2.16556536      0.26791916
