41
Nc1nc(/C(=C/CC(=O)O)C(=O)N[C@@H]2C(=O)N3C(C(=O)O)=CCS[C@H]23)cs1
N      -1.88017177     -0.43447718      3.87436122
C      -2.52781044     -0.53883858      2.70355084
N      -1.91281223     -0.50978178      1.54673569
C      -2.83015199     -0.61242462      0.51543265
C      -2.35809507     -0.60175374     -0.84514913
C      -2.91363366     -1.38153325     -1.80197524
C      -2.51010585     -1.53497591     -3.24292783
C      -3.33608136     -0.62459384     -4.12904564
O      -4.40133067     -0.95381349     -4.63236388
O      -2.81791000      0.61475625     -4.27716170
C      -1.22705903      0.32941795     -1.23312921
O      -1.09919185      0.74414938     -2.38597946
N      -0.37302168      0.70132937     -0.22972942
C       0.85594949      1.49109253     -0.48593338
C       2.11264084      0.66318102     -0.91042479
O       2.36841391     -0.19022198     -1.72781865
N       2.82230946      1.19036838      0.12029656
C       3.89817711      0.68730776      0.78855037
C       5.00619078      0.02847502      0.04168719
O       5.74823909     -0.83714975      0.47205899
O       5.17348498      0.56279596     -1.18096969
C       4.00106252      0.76637971      2.12713291
C       2.94809774      1.29800236      3.04757657
S       1.28100556      1.13436943      2.34475257
C       1.72163712      1.89812241      0.74738842
C      -4.14799716     -0.71614797      0.91359735
S      -4.23541824     -0.68568832      2.62658626
H      -2.40812609     -0.11039180      4.67565372
H      -0.93930783     -0.05661442      3.82131531
H      -3.74102601     -2.03629863     -1.52586094
H      -1.44193705     -1.38326853     -3.42240911
H      -2.69700696     -2.56837980     -3.55987717
H      -2.00836436      0.76000185     -3.72365116
H      -0.52861386      0.28089200      0.69170151
H       0.65717589      2.33129500     -1.16220913
H       5.87469017      0.01859233     -1.59458263
H       4.89052822      0.36853066      2.61397452
H       2.96192785      0.72420698      3.98007598
H       3.15391047      2.34370035      3.29548335
H       1.90175273      2.97757836      0.81202684
H      -5.04202076     -0.79516863      0.31125934
