31
CC(C)CCCC(C)CC=O
C       3.11766944      1.34478502     -0.49603361
C       2.81014148     -0.15203452     -0.43430390
C       3.97281074     -0.89071254      0.23329470
C       1.50026375     -0.45331468      0.31736919
C       0.25695361      0.12898981     -0.36439568
C      -1.02353997     -0.31237034      0.35455198
C      -2.30200584      0.34782750     -0.20688729
C      -2.57027812     -0.08632878     -1.65179289
C      -3.52065039     -0.00513171      0.66329940
C      -3.56176403      0.72208163      1.98900097
O      -2.78690654      1.60959062      2.32850072
H       3.14999494      1.78520661      0.50621285
H       2.36597310      1.88247821     -1.08158615
H       4.08710731      1.52244269     -0.97421299
H       2.72049724     -0.52673704     -1.46182835
H       4.90733293     -0.71936826     -0.31148863
H       3.79067316     -1.97051197      0.24884938
H       4.11608560     -0.55565657      1.26629224
H       1.38015217     -1.54168916      0.39516791
H       1.56562565     -0.07056968      1.34394166
H       0.23590899     -0.20134371     -1.40836379
H       0.30669955      1.22320802     -0.36403759
H      -1.11534648     -1.40449785      0.29471509
H      -0.92371484     -0.06698952      1.41863979
H      -2.16565899      1.43698674     -0.20403125
H      -3.50296007      0.35240117     -2.02288047
H      -1.77260426      0.24388687     -2.32366604
H      -2.65486820     -1.17553052     -1.72943281
H      -4.45047303      0.25941240      0.14613463
H      -3.55010089     -1.08103354      0.86960457
H      -4.38301803      0.41450217      2.65936634
