14
C1=COCCC1
C       1.30827641      0.57650027     -0.22697361
C       1.46085329     -0.75090576     -0.16148844
O       0.45111211     -1.65826273      0.01720685
C      -0.86808453     -1.12082263     -0.14981005
C      -1.03685870      0.23525381      0.52279412
C      -0.02635582      1.22544377     -0.04764006
H       2.17296938      1.21353590     -0.38531977
H       2.41988973     -1.24936246     -0.22730054
H      -1.57088364     -1.84039369      0.28310961
H      -1.08609484     -1.05696992     -1.22320134
H      -0.86072990      0.12670971      1.60071591
H      -2.05659751      0.61160778      0.39030244
H       0.06259149      2.08518984      0.62536891
H      -0.37008749      1.60247611     -1.01776402
