45
CCN(CCO)C(=O)c1cc2cccnn2c1-c1ccc(C(F)(F)F)cc1
C       1.62521052      3.24109447     -0.89815130
C       2.67396697      2.14331464     -0.80821593
N       2.09446573      0.88347122     -0.34441402
C       2.06844429      0.65074924      1.10946034
C       3.17079433     -0.30963256      1.56596273
O       4.45930899      0.20091703      1.23512418
C       1.55259160      0.02108159     -1.30193360
O       1.67479213      0.21686112     -2.50868502
C       0.84040265     -1.15878069     -0.82921307
C       1.29505408     -2.50290321     -0.92052876
C       0.31798893     -3.30838313     -0.38521936
C       0.21030080     -4.70546941     -0.19761971
C      -0.90292257     -5.20403319      0.34972540
C      -1.95350951     -4.23399683      0.72611009
N      -1.90354583     -2.94971898      0.57908547
N      -0.74166688     -2.50844714      0.00705251
C      -0.44568600     -1.18362499     -0.28491633
C      -1.38495584     -0.07319092     -0.07059625
C      -2.01105868      0.11716688      1.16712916
C      -2.87945085      1.19420630      1.37078762
C      -3.13367606      2.11037196      0.34037633
C      -4.08707005      3.25996523      0.55174073
F      -4.11786047      3.69790484      1.84223453
F      -5.37129749      2.93608503      0.23683846
F      -3.78149077      4.35418073     -0.20094422
C      -2.51539971      1.91469764     -0.90229770
C      -1.64885875      0.83585751     -1.10329791
H       1.15376496      3.41732002      0.07414844
H       0.83561970      2.97435534     -1.60802743
H       2.08247271      4.17731630     -1.23241593
H       3.12738495      1.99806236     -1.79498349
H       3.47932888      2.44055547     -0.12791158
H       1.09731901      0.25562754      1.41093609
H       2.19106033      1.61800175      1.61038142
H       3.07056893     -1.29682093      1.10746866
H       3.12860695     -0.43580461      2.65204185
H       4.47354764      0.29088233      0.26485639
H       2.23937813     -2.83279110     -1.33538043
H       1.02333215     -5.35647865     -0.50287266
H      -1.06845207     -6.25772527      0.52379416
H      -2.85679694     -4.67865949      1.17613998
H      -1.83032500     -0.57657431      1.98565187
H      -3.35860057      1.31293248      2.34150941
H      -2.70520885      2.60204977     -1.72560034
H      -1.18787244      0.70800659     -2.08175724
