51
CCN(CC)c1ccc(N=Nc2c(C#N)cc(C)cc2C#N)c(NS(C)(=O)=O)c1
C      -5.40146637      1.37110520     -0.04433795
C      -5.05324198     -0.05083908     -0.45902792
N      -4.00911909     -0.06113015     -1.49267896
C      -4.48882998     -0.04082985     -2.88125507
C      -4.59784258     -1.45248640     -3.43931076
C      -2.65431771     -0.03076383     -1.17568802
C      -1.65220957     -0.12224837     -2.15859131
C      -0.28378377     -0.08485771     -1.85059364
C       0.14350141      0.02836311     -0.52963945
N       1.51444225      0.11499896     -0.22842106
N       2.05220001     -1.01135777     -0.28613775
C       3.41358328     -0.89174476      0.07359653
C       4.40732117     -0.76379806     -0.91190123
C       4.05460744     -0.73566754     -2.30198862
N       3.79304137     -0.72022136     -3.43239418
C       5.75971744     -0.66202220     -0.54791902
C       6.14085959     -0.67887380      0.79968786
C       7.59055626     -0.59409670      1.18066784
C       5.15565741     -0.83203439      1.78304738
C       3.80363110     -0.93638754      1.42493000
C       2.80983147     -1.08878209      2.44644189
N       1.96334933     -1.20849684      3.23392838
C      -0.82950461      0.10841601      0.47430564
N      -0.47454749      0.27011920      1.86401243
S      -0.06411039      1.86170680      2.30595107
C      -0.60688247      1.85168742      3.99747243
O       1.38104056      1.95289806      2.29628429
O      -0.89298970      2.80187288      1.58447618
C      -2.19416733      0.09148897      0.14828242
H      -4.53995732      1.89335616      0.38071331
H      -5.75424473      1.95495311     -0.90031578
H      -6.19516142      1.35996001      0.70874521
H      -5.96031543     -0.53011535     -0.84875251
H      -4.77160129     -0.65594493      0.40994010
H      -3.86182457      0.58839744     -3.52191168
H      -5.48258881      0.42302423     -2.92251763
H      -5.28115162     -2.06111135     -2.83799501
H      -4.98159459     -1.42450583     -4.46418518
H      -3.62843430     -1.95946269     -3.45377855
H      -1.90615665     -0.22696656     -3.20933987
H       0.44755782     -0.14015722     -2.65335636
H       6.52140342     -0.56237088     -1.32337843
H       7.70881648     -0.13680724      2.16903162
H       8.14533410      0.02430477      0.46782775
H       8.03065025     -1.59512620      1.20036724
H       5.44095558     -0.86551466      2.83497989
H       0.31202476     -0.33654843      2.12811027
H      -0.04690589      1.08977177      4.54279393
H      -0.40514366      2.83692067      4.42404007
H      -1.68005854      1.64793187      4.02333287
H      -2.89193063      0.18999315      0.97244935
