30
OC(c1ccccc1)C(O)c1ccccc1
O       0.95225219     -2.33113914     -1.88295443
C       0.55360360     -1.43149868     -0.82528821
C       1.36043982     -0.15466817     -0.92957825
C       1.50173753      0.51627763     -2.15496688
C       2.23566205      1.70040148     -2.23579524
C       2.83282093      2.22986912     -1.09393580
C       2.69571764      1.57737421      0.12950470
C       1.96338377      0.39204935      0.21259873
C      -0.98193330     -1.22219060     -0.92348157
O      -1.60747996     -2.50104553     -1.13770329
C      -1.56871921     -0.57488913      0.31344013
C      -1.72599612      0.81893129      0.36949124
C      -2.23047711      1.43342962      1.51717830
C      -2.58422740      0.66368296      2.62310432
C      -2.43391140     -0.72064230      2.58286727
C      -1.92737087     -1.33588857      1.43667003
H       1.91860869     -2.23828055     -1.96912657
H       0.79914979     -1.95962191      0.10445105
H       1.03812173      0.11800192     -3.05599039
H       2.33972521      2.21135439     -3.18969268
H       3.40237847      3.15357080     -1.15635834
H       3.15537261      1.99447863      1.02206829
H       1.85628070     -0.09507426      1.18024663
H      -1.23332953     -0.62744988     -1.81010919
H      -0.99592699     -2.96726000     -1.74317125
H      -1.44925893      1.43815615     -0.48156443
H      -2.34738350      2.51351055      1.54676464
H      -2.98074521      1.14189574      3.51462057
H      -2.71546308     -1.32421442      3.44159323
H      -1.82303216     -2.41912067      1.41655404
