27
CCCCOC(=O)n1cc(F)c(=O)[nH]c1=O
C       3.70960458      1.53228833     -1.70851658
C       2.68427679      1.18824023     -0.63955839
C       2.78804477     -0.27918323     -0.21734130
C       1.78836003     -0.63583141      0.87952046
O       0.45891643     -0.47902017      0.36801991
C      -0.54319018     -0.74824258      1.24675031
O      -0.32312598     -1.11128686      2.40201772
N      -1.83799135     -0.57703388      0.72245885
C      -2.91211954     -0.85164375      1.56774558
C      -4.18262825     -0.72668614      1.18965302
F      -5.20968560     -0.99478318      2.01578940
C      -4.50169725     -0.28121579     -0.17423220
O      -5.64734984     -0.14371898     -0.58203503
N      -3.40473146     -0.03089617     -0.95376669
C      -2.07636998     -0.14508243     -0.59119411
O      -1.23577501      0.14073672     -1.44043374
H       3.61966401      2.58476522     -1.99509700
H       4.72809884      1.36555819     -1.34356822
H       3.56115796      0.92207684     -2.60514056
H       1.68145398      1.40139016     -1.02686792
H       2.84068613      1.83671405      0.23029719
H       2.60510883     -0.91360621     -1.09320775
H       3.80243744     -0.49000827      0.14049580
H       1.93802816     -1.67937251      1.17952654
H       1.93185101      0.01646425      1.74886721
H      -2.68318364     -1.18173017      2.57776760
H      -3.57984088      0.28110771     -1.89795012
