50
CN1CCC[C@@H]1CCO[C@](C)(c1ccccc1)c1ccc(Cl)cc1
C       3.69458217      0.08438808     -2.63916170
N       3.95664453     -0.12578251     -1.21951195
C       4.79399157      0.94460689     -0.67016338
C       4.61704505      0.80768067      0.83336718
C       3.31107502      0.04342706      1.01599096
C       2.73507405     -0.11378447     -0.39312851
C       1.88314447     -1.38023025     -0.55543753
C       0.69082124     -1.43709560      0.39920202
O      -0.10260194     -0.26684563      0.21970912
C      -1.41423734     -0.26694856      0.83318339
C      -1.29192692     -0.59494557      2.33829431
C      -2.30713105     -1.22544665      0.02379484
C      -2.35559882     -1.09987274     -1.37988369
C      -3.15387053     -1.94201508     -2.15554288
C      -3.92253736     -2.92729893     -1.54411291
C      -3.89316748     -3.06908005     -0.15920327
C      -3.09399782     -2.22624401      0.61929285
C      -1.95028860      1.18630869      0.75490471
C      -3.31814251      1.46426569      0.95323231
C      -3.80305902      2.77465223      0.90520239
C      -2.92670460      3.82869070      0.66689894
Cl     -3.52287005      5.44150940      0.60918202
C      -1.56993635      3.58480624      0.47920915
C      -1.08550055      2.27413309      0.52664985
H       4.63709308      0.13029398     -3.19630301
H       3.12661411     -0.75105851     -3.06029700
H       3.13967070      1.01007207     -2.82953139
H       5.84300453      0.83476686     -0.96316534
H       4.44674079      1.93553408     -0.99061208
H       5.44488579      0.24290758      1.27724048
H       4.58068258      1.78809805      1.31949424
H       2.62269429      0.58413320      1.67436599
H       3.52238946     -0.92866041      1.47840904
H       2.13323217      0.77507128     -0.62953892
H       1.49749112     -1.41802228     -1.58152592
H       2.49856974     -2.27651837     -0.40924692
H       0.11121371     -2.34120476      0.18582710
H       1.04537273     -1.48922651      1.43315864
H      -0.55230070      0.05671419      2.82001321
H      -0.95761863     -1.62450959      2.50856742
H      -2.24245548     -0.47050225      2.87019702
H      -1.75979488     -0.33355779     -1.87454245
H      -3.17377715     -1.82590409     -3.23592916
H      -4.54485894     -3.58376041     -2.14639784
H      -4.49527144     -3.83826089      0.31820810
H      -3.10563534     -2.36991359      1.69621895
H      -4.02401349      0.65762913      1.14236306
H      -4.86302556      2.96199752      1.05358151
H      -0.88207992      4.40564861      0.29607912
H      -0.01963046      2.10935425      0.38139793
