28
O=C1Nc2ccc(Cl)cc2C(=O)N2CCCC12
O      -1.48812403     -2.64589245     -0.84950838
C      -0.80218452     -1.67515739     -0.52620673
N       0.54951534     -1.72865223     -0.74241387
C       1.54461831     -0.80354458     -0.37731968
C       2.82627387     -1.35610459     -0.20113721
C       3.90749562     -0.56595969      0.19526391
C       3.72492028      0.79514747      0.39878044
Cl      5.05301614      1.77250502      0.88492976
C       2.47618042      1.37112439      0.19008823
C       1.37633669      0.58299032     -0.20489797
C       0.15245537      1.34439589     -0.57508479
O       0.27053215      2.50198881     -0.97192345
N      -1.06921696      0.73218626     -0.48397381
C      -2.28850193      1.40302268     -0.89504143
C      -3.35790640      0.33066412     -0.78018986
C      -2.87433457     -0.49509530      0.40757327
C      -1.35072083     -0.48484015      0.25344906
H       0.84056693     -2.64110719     -1.07550452
H       2.99638160     -2.42169934     -0.34630640
H       4.88475455     -1.01966471      0.34135511
H       2.35780615      2.44775089      0.30687507
H      -2.47352283      2.22955784     -0.19954778
H      -2.18898009      1.80544638     -1.90746073
H      -4.35829908      0.74639190     -0.63296558
H      -3.37097322     -0.28991502     -1.68416511
H      -3.15099203      0.01903514      1.33678215
H      -3.32108444     -1.49281730      0.43263624
H      -0.86601248     -0.46175717      1.23662188
