29
CC(C)c1ccc(CCC=O)cc1
C      -2.79205933      2.01910330      0.50112581
C      -2.69487858      0.69659305     -0.26351747
C      -3.73426578     -0.30533595      0.24523087
C      -1.29085559      0.12101317     -0.20709277
C      -0.56087448     -0.05322846     -1.39094504
C       0.73212364     -0.58239902     -1.36360832
C       1.32498724     -0.94793161     -0.14987872
C       2.72969176     -1.49945036     -0.11698934
C       3.75012082     -0.50624287      0.42805512
C       3.95474785      0.63895962     -0.52776011
O       5.00554642      0.82668040     -1.13409225
C       0.59873812     -0.77959787      1.03454015
C      -0.69423383     -0.25069078      1.00582909
H      -2.05617551      2.74100122      0.12968572
H      -2.61691059      1.88619652      1.57427374
H      -3.78665757      2.46167419      0.37933620
H      -2.94177896      0.91239825     -1.31159668
H      -4.74675191      0.09340754      0.11955007
H      -3.59707615     -0.53458205      1.30760020
H      -3.67392387     -1.24797131     -0.31012381
H      -0.99518826      0.22079415     -2.35028214
H       1.26979226     -0.70614129     -2.30165561
H       2.73090909     -2.40218039      0.50696457
H       3.02449076     -1.82577843     -1.12257379
H       4.71372902     -1.00958017      0.56568079
H       3.44976655     -0.09292102      1.39649617
H       3.09848502      1.32288724     -0.65662118
H       1.03175872     -1.06256463      1.99164076
H      -1.23325684     -0.13411242      1.94339252
