43
O=C(/C=C/c1ccc(O)c(O)c1)O[C@@H]1C[C@](O)(C(=O)O)C[C@@H](O)[C@H]1O
O       0.05368111      0.08886255     -1.91364630
C       0.28667959      0.04714399     -0.71723433
C       1.61954184     -0.07207693     -0.09903523
C       2.71190771     -0.13978138     -0.87470315
C       4.08235767     -0.24163573     -0.35452813
C       4.40055771     -1.00603986      0.78193315
C       5.72151203     -1.10486531      1.23606381
C       6.72645924     -0.44425713      0.54286903
O       8.03490531     -0.50148328      0.93404044
C       6.42141920      0.30134262     -0.59167390
O       7.41632347      0.94334684     -1.27260815
C       5.11387574      0.40371109     -1.04896822
O      -0.64114472      0.07157360      0.26590219
C      -2.02639559      0.28467920     -0.12136193
C      -2.72277270      0.73609413      1.16837142
C      -4.23989731      0.81113677      1.03813397
O      -4.57873428      1.87905528      0.12863584
C      -4.85713424      1.16814337      2.39833352
O      -4.81775919      0.46357531      3.39503198
O      -5.45510141      2.38661596      2.36724514
C      -4.81898300     -0.52397058      0.56033503
C      -4.18598753     -0.94975194     -0.75504506
O      -4.56952180      0.00811072     -1.75839414
C      -2.65000534     -1.01142720     -0.69749165
O      -2.23949307     -1.25533259     -2.05489108
H       1.66367272     -0.08315006      0.98277811
H       2.62049298     -0.09270075     -1.95940506
H       3.62512786     -1.54554418      1.32101445
H       5.93838599     -1.70035734      2.11694917
H       8.09004628     -1.05493529      1.73203302
H       8.23153788      0.72999160     -0.77611605
H       4.91045932      0.99288153     -1.93919585
H      -2.06259449      1.09320634     -0.86310883
H      -2.31642760      1.71524206      1.45668946
H      -2.44630569      0.05571993      1.98611232
H      -4.80105561      1.46109723     -0.73778941
H      -5.33890999      2.73879194      1.44983642
H      -4.66105882     -1.30521381      1.31395279
H      -5.90202342     -0.41536650      0.41780928
H      -4.59135251     -1.91602464     -1.07616559
H      -4.07142139     -0.27473410     -2.55817193
H      -2.32670195     -1.87159091     -0.10018709
H      -1.34816200     -0.87008254     -2.19731901
