25
CCSC(C(=O)O)c1ccccc1
C       3.46539888     -1.42861237      0.15879388
C       2.14740272     -0.77328324     -0.21537008
S       1.78955571      0.59217228      0.93248980
C       0.30327632      1.29881801      0.10294818
C      -0.05064847      2.61867943      0.78794997
O      -0.77788708      2.80054543      1.75262285
O       0.57730856      3.68092286      0.22710095
C      -0.86243326      0.32432478      0.04803023
C      -1.38384365     -0.07027659     -1.19626154
C      -2.44967446     -0.96940365     -1.27087097
C      -3.01090799     -1.48540434     -0.10537468
C      -2.50871159     -1.10254038      1.13577780
C      -1.44282882     -0.20438239      1.21305583
H       3.43359374     -1.84790971      1.17023104
H       3.68179301     -2.24982854     -0.53264286
H       4.29837656     -0.71967517      0.10073114
H       2.20841831     -0.38450962     -1.23649439
H       1.34620591     -1.51637698     -0.16722912
H       0.60066621      1.54981085     -0.92320391
H       0.30325084      4.43252510      0.79419746
H      -0.96395556      0.31840087     -2.12186527
H      -2.84399633     -1.26638164     -2.23938126
H      -3.84192405     -2.18342273     -0.16315732
H      -2.94795234     -1.49974401      2.04737231
H      -1.07048316      0.08555174      2.19496535
