34
C/C=C/C(=O)C1C(C)=CCCC1(C)C
C       4.67833014     -0.15347599      1.09534053
C       3.24375804      0.20885253      1.29259108
C       2.28421419     -0.00341974      0.37970101
C       0.86384896      0.38752379      0.65197679
O       0.55644590      0.91200242      1.72157378
C      -0.15528978      0.08988015     -0.46741839
C      -0.80515367      1.40736449     -0.87361332
C       0.04781984      2.36137156     -1.66375817
C      -2.07857814      1.70500823     -0.55618615
C      -2.98546715      0.80356742      0.22769990
C      -2.28201189     -0.40619195      0.84810499
C      -1.18931814     -1.01253200     -0.06236741
C      -0.51394659     -2.18849438      0.67291818
C      -1.84017486     -1.59865351     -1.34001072
H       5.30281970      0.74184058      1.17127343
H       4.85802438     -0.61339354      0.11843979
H       4.99403767     -0.86027840      1.86871532
H       2.99072789      0.67278786      2.24545381
H       2.50160809     -0.46222360     -0.57687561
H       0.39870949     -0.28543707     -1.33881296
H       0.91776567      2.67656885     -1.07934269
H       0.40005641      1.88228342     -2.58298677
H      -0.50223156      3.26376881     -1.95103833
H      -2.51109313      2.65192625     -0.87258918
H      -3.78728609      0.46164621     -0.43768378
H      -3.46703995      1.38128479      1.02526074
H      -1.83711861     -0.09901147      1.80327996
H      -3.03460269     -1.16366375      1.10262110
H      -0.10992897     -1.88661468      1.64488968
H      -1.23056028     -2.99611694      0.86288568
H       0.30668004     -2.60633932      0.07911310
H      -2.60808372     -2.33825878     -1.08564252
H      -2.31515486     -0.83209233     -1.95989287
H      -1.09180634     -2.10147992     -1.96362000
