35
CCCCCCCCCCC
C      -5.36163971      0.32951283      1.16084623
C      -5.07840095      0.22212534     -0.32954533
C      -3.77534447     -0.51203451     -0.65271480
C      -2.52601577      0.23067809     -0.17370968
C      -1.25002439     -0.49044430     -0.61429872
C       0.00052730      0.24795750     -0.13399658
C       1.27580154     -0.47263241     -0.57471470
C       2.52706613      0.26631009     -0.09451581
C       3.80113889     -0.45860988     -0.53396976
C       5.08294792      0.29377752     -0.17028789
C       5.31779919      0.40482340      1.32822375
H      -5.35267257     -0.65699586      1.63491734
H      -4.62602125      0.96316307      1.66468179
H      -6.34843065      0.77466769      1.32409965
H      -5.06104160      1.22542400     -0.77083833
H      -5.90719504     -0.31772652     -0.80300470
H      -3.80046467     -1.51646239     -0.21275354
H      -3.71840493     -0.64508252     -1.74023850
H      -2.53282170      0.31104924      0.91907429
H      -2.52808605      1.25104554     -0.57558908
H      -1.24952243     -1.51217051     -0.21542774
H      -1.23162901     -0.57001150     -1.70805988
H      -0.00043218      1.26978312     -0.53255949
H      -0.01717443      0.32742014      0.95978525
H       1.29281237     -0.55220681     -1.66849768
H       1.27720608     -1.49435309     -0.17583197
H       2.52734399      1.28669382     -0.49635913
H       2.49848983      0.34652855      0.99792684
H       3.82661817     -1.46268021     -0.09321360
H       3.78018899     -0.59220890     -1.62271406
H       5.06528349      1.29682784     -0.61213333
H       5.93370108     -0.23423309     -0.61742063
H       4.55788906      1.02792462      1.80861782
H       6.29261235      0.86381656      1.52222085
H       5.30789542     -0.58181721      1.80200112
