31
FC(F)(F)/C(=N/OCC1OCCO1)c1ccc(Cl)cc1
F      -2.89471685     -2.74705977      2.04428834
C      -2.70066024     -2.60971888      0.70221354
F      -2.30388167     -3.83081741      0.25068754
F      -3.93267274     -2.38464481      0.16389803
C      -1.72224115     -1.49248296      0.36879504
N      -0.83488445     -1.66183208     -0.57520048
O      -0.06332237     -0.51042885     -0.79101272
C       0.95053493     -0.80712630     -1.75509677
C       1.84313888      0.41987374     -1.94430350
O       2.62613095      0.67246324     -0.76008957
C       3.97488655      0.42471635     -1.15414062
C       3.97519039      0.74092673     -2.62407383
O       2.72247249      0.22087002     -3.06427821
C      -1.87717842     -0.25266520      1.17547527
C      -0.78786547      0.23846761      1.90647511
C      -0.93201708      1.39207771      2.68031996
C      -2.16221813      2.04689708      2.72452468
Cl     -2.33960128      3.46782619      3.67756672
C      -3.25058912      1.55925206      2.00017879
C      -3.11110629      0.40608313      1.22287832
H       0.48003976     -1.08517658     -2.70522711
H       1.54773686     -1.65575276     -1.40020463
H       1.23320245      1.31180236     -2.12734130
H       4.19166992     -0.63311015     -0.97030639
H       4.66695319      1.04204202     -0.57629855
H       4.80109751      0.27651252     -3.16822658
H       3.98016691      1.82119160     -2.80588267
H       0.17560961     -0.26662144      1.87066111
H      -0.08263816      1.77455677      3.24072118
H      -4.20749232      2.07460971      2.03423133
H      -3.96574464      0.04726836      0.65361477
