18
CN1CCOCC1
C       2.10638576      0.25167931     -0.38600909
N       0.66292313      0.06057874     -0.50456150
C       0.23823280     -1.17359320      0.18737720
C      -1.28832120     -1.34469771      0.13110283
O      -1.95862737     -0.21689984      0.71116354
C      -1.58715269      0.98274645      0.01793092
C      -0.06756435      1.20809763      0.07155766
H       2.43080337      0.34406620      0.65678557
H       2.41870490      1.15300460     -0.92485318
H       2.64237584     -0.58903471     -0.84010341
H       0.55266619     -1.14093085      1.23888673
H       0.70942493     -2.04537936     -0.28068998
H      -1.58246722     -2.23199541      0.70076849
H      -1.63606588     -1.48096800     -0.90010595
H      -1.94535363      0.92790196     -1.01723543
H      -2.10239300      1.81744664      0.50387233
H       0.17439657      2.12169946     -0.48333683
H       0.23203186      1.35627808      1.11745011
