26
NS(=O)(=O)c1cc2c(cc1C(F)(F)F)NC=NS2(=O)=O
N       3.20590671      0.73979474     -1.45670544
S       2.56922484      1.39443738     -0.05482005
O       2.31159492      2.78232166     -0.35370621
O       3.41059985      0.98602728      1.04026284
C       1.01908204      0.53098275      0.06524133
C      -0.14828545      1.23895253     -0.24688300
C      -1.38654458      0.59920291     -0.13984206
C      -1.50380422     -0.71889154      0.28005795
C      -0.32834066     -1.41235496      0.59392246
C       0.94967694     -0.81107723      0.48674597
C       2.16495194     -1.63523624      0.85870436
F       2.61044008     -1.37772386      2.11423376
F       1.88937745     -2.97474169      0.84751130
F       3.22020663     -1.49602665      0.01423775
N      -2.74716684     -1.33771520      0.38386241
C      -3.91163001     -0.69369901      0.08750175
N      -4.11890654      0.50362249     -0.32057339
S      -2.85856103      1.49186368     -0.55106834
O      -2.93166945      2.56896688      0.41635301
O      -2.74403487      1.77363106     -1.96880612
H       4.04429975      0.19314308     -1.24557486
H       3.35485703      1.47161192     -2.15355847
H      -0.10822945      2.27878610     -0.57159772
H      -0.39609825     -2.44814112      0.93044949
H      -2.78046176     -2.29839807      0.70587224
H      -4.78648509     -1.34933889      0.23817903
