51
COCCC(=O)Nc1ccc(Nc2ncc3cc(-c4ccncc4)ccc3n2)cc1
C      11.12184259      0.35116868     -0.53132447
O       9.88652645     -0.33267177     -0.70275154
C       8.77788948      0.49380692     -0.33862631
C       7.50328392     -0.30542152     -0.54910558
C       6.27078292      0.49679904     -0.18633700
O       6.34301905      1.64948984      0.22371873
N       5.11362939     -0.24050622     -0.38162183
C       3.78409066      0.16825986     -0.15443135
C       2.77353116     -0.75780630     -0.42640225
C       1.42434113     -0.43120730     -0.22752271
C       1.04583857      0.82514807      0.24747072
N      -0.27816027      1.21414881      0.46635971
C      -1.51254378      0.59018503      0.31380880
N      -1.62360938     -0.66572577     -0.13882030
C      -2.86592810     -1.17122136     -0.24850805
C      -4.01455289     -0.47253525      0.07532829
C      -5.31775107     -1.00274512     -0.04077585
C      -6.43747276     -0.23669023      0.31041661
C      -7.79905003     -0.77935750      0.19527828
C      -8.26677822     -1.31333600     -1.01133433
C      -9.55868698     -1.81297627     -1.07073397
N     -10.40827713     -1.82217994     -0.02366322
C      -9.94637708     -1.30550198      1.13312724
C      -8.67291318     -0.78010870      1.28892661
C      -6.21142945      1.06488701      0.77625735
C      -4.91039453      1.57674508      0.88336623
C      -3.79744889      0.82325570      0.53790566
N      -2.56969969      1.34799614      0.65535235
C       2.06983330      1.74547095      0.51610717
C       3.42089568      1.42515423      0.31930861
H      11.26142337      0.63282214      0.51679928
H      11.93152508     -0.32316797     -0.82270444
H      11.15969590      1.23929433     -1.16942718
H       8.87457035      0.79322142      0.71180606
H       8.77351162      1.39540049     -0.96273693
H       7.53206894     -1.21619246      0.06098264
H       7.43205147     -0.62000120     -1.59720194
H       5.23095347     -1.18486615     -0.72812433
H       3.01024990     -1.75126214     -0.79789727
H       0.68046587     -1.18846937     -0.45480142
H      -0.42836754      2.14866444      0.81726130
H      -2.90750266     -2.19176444     -0.61836497
H      -5.45137897     -2.02360113     -0.39509952
H      -7.64475427     -1.33070641     -1.90046051
H      -9.95531020     -2.22950619     -1.99233999
H     -10.64798999     -1.32592524      1.96227659
H      -8.36892588     -0.38987112      2.25500572
H      -7.04846556      1.70477515      1.05074826
H      -4.76655655      2.59282992      1.24453841
H       1.82905359      2.73914550      0.88753965
H       4.15925117      2.18665632      0.54831512
