15
COC(C)C
C       1.61994418      1.27094322     -0.13971121
O       0.80338015      0.44313392      0.67715532
C      -0.06110545     -0.41990804     -0.06696001
C      -1.26133438      0.34763923     -0.61237020
C      -0.52478658     -1.51589978      0.88631982
H       2.29811434      1.82900394      0.51178171
H       2.21996165      0.66589579     -0.82607313
H       1.01530652      1.99014904     -0.69804076
H       0.49562860     -0.88609210     -0.88892875
H      -1.77054016      0.89721207      0.18687550
H      -1.97938352     -0.32703033     -1.08917201
H      -0.95148851      1.08703323     -1.35719471
H      -1.18200733     -2.23123892      0.38248594
H       0.33671653     -2.05927935      1.28967305
H      -1.05840605     -1.09156192      1.74415945
