34
[Cl-].[Cl-].[NH3+]CCCCCCCC[NH3+]
Cl      0.00000000      0.00000000      0.00000000
Cl      0.00000000      0.00000000      0.00000000
N      -5.11373040      0.41216511     -1.40571182
C      -3.93425268      0.11318565     -0.55602868
C      -2.71823112      0.85262217     -1.10339418
C      -1.46613740      0.70837508     -0.22595610
C      -0.89580909     -0.71285755     -0.20475580
C       0.34511559     -0.86449683      0.68622523
C       1.59494311     -0.16300560      0.14213272
C       2.82645872     -0.47363683      1.00386734
C       4.07804865      0.20513571      0.45951755
N       5.24223997     -0.15546439      1.30394413
H      -4.97185472      0.12289052     -2.38326969
H      -5.95123939     -0.08125735     -1.06551448
H      -5.34146677      1.41613257     -1.41017531
H      -3.80437268     -0.97189228     -0.57683480
H      -4.18630040      0.43604268      0.45830503
H      -2.49534988      0.50598879     -2.12019107
H      -2.95440964      1.92163036     -1.18247738
H      -1.69746234      1.03057373      0.79647135
H      -0.70644482      1.39754112     -0.61192320
H      -1.65923218     -1.40197384      0.17336519
H      -0.65729257     -1.03334808     -1.22599945
H       0.12210618     -0.49521804      1.69457213
H       0.55865967     -1.93635286      0.78468206
H       1.77979236     -0.49026972     -0.88808775
H       1.43631173      0.92087998      0.11667726
H       2.98205115     -1.55919789      1.03961213
H       2.64385330     -0.14192064      2.03361259
H       3.99294299      1.29542544      0.48435267
H       4.31074166     -0.12233180     -0.55795648
H       6.10176477      0.29886297      0.96530556
H       5.42129156     -1.16903786      1.30278720
H       5.11726470      0.13480970      2.28313887
