58
O=C(NCc1ccc(OC(F)(F)F)cc1)C1c2ccccc2C(=O)N1CCC1CCOCC1
O      -0.65346204      0.46238309     -0.76348605
C      -0.06317249     -0.15251859      0.12170261
N       1.17444234      0.24965432      0.59266314
C       1.78575622      1.46784899      0.11661159
C       3.24626801      1.49561624      0.47917561
C       4.18871405      0.86187897     -0.34312318
C       5.54331990      0.85879897     -0.00200930
C       5.96597057      1.49637595      1.16375217
O       7.26788836      1.49803367      1.57647575
C       8.14797003      2.10801270      0.63686788
F       9.34638014      2.29713871      1.23300838
F       7.68541378      3.31168852      0.23522369
F       8.34083265      1.31508447     -0.43945489
C       5.03299488      2.09439598      2.01061096
C       3.67934783      2.10131243      1.66735950
C      -0.59475712     -1.44295959      0.78281598
C      -0.11973034     -2.67946124      0.07147219
C       1.16466403     -3.11069382     -0.22248605
C       1.31869319     -4.33574787     -0.88509910
C       0.20182734     -5.11445386     -1.23689875
C      -1.08804593     -4.68089601     -0.92898718
C      -1.21416883     -3.46559398     -0.28125690
C      -2.43443475     -2.80038932      0.18576403
O      -3.54105251     -3.30111582      0.13834460
N      -2.05409655     -1.57753531      0.72092922
C      -2.92542277     -0.76498965      1.55530739
C      -4.24048083     -0.34099132      0.88830933
C      -4.06801355      0.53733035     -0.36404787
C      -5.40682882      0.68782616     -1.10370613
C      -5.27017969      1.64110679     -2.28522042
O      -4.78015367      2.91217365     -1.85656811
C      -3.48141139      2.80955356     -1.27207127
C      -3.52463501      1.93382407     -0.02553666
H       1.55466734     -0.17099017      1.43055370
H       1.65569993      1.55108530     -0.96841281
H       1.25452288      2.31301177      0.56861291
H       3.86862203      0.36034832     -1.25516741
H       6.24585646      0.33835916     -0.64805503
H       5.35814995      2.56572605      2.93601018
H       2.96670147      2.58381758      2.33354454
H      -0.30024449     -1.48456663      1.83872018
H       2.03939107     -2.52560325      0.04426085
H       2.31788911     -4.69498241     -1.12828930
H       0.34475810     -6.06390535     -1.74849178
H      -1.96317248     -5.26976362     -1.18215697
H      -2.36914761      0.11813388      1.88312097
H      -3.15370720     -1.35673963      2.44911097
H      -4.82285709     -1.23265977      0.62516470
H      -4.84328100      0.19980585      1.63102496
H      -3.36817786      0.04360671     -1.05076963
H      -5.76461480     -0.28792098     -1.45177151
H      -6.15758647      1.08693736     -0.40977341
H      -4.60386628      1.23161288     -3.05375138
H      -6.24914710      1.80094990     -2.74864201
H      -2.77413402      2.41863627     -2.01363124
H      -3.15676414      3.82071615     -1.00481942
H      -2.52618283      1.87777635      0.41670029
H      -4.18381204      2.40391709      0.71703490
