15
Cc1ccc(Br)cc1
C       2.26451565     -0.09921367     -0.17172232
C       0.77196654     -0.03245442     -0.03354803
C       0.01652859     -1.20785057      0.06904222
C      -1.37552802     -1.14838412      0.16614800
C      -2.01687078      0.08821379      0.15020131
Br     -3.90111018      0.17007219      0.28039197
C      -1.27981747      1.26466221      0.03413775
C       0.11215549      1.20308513     -0.06285184
H       2.53951215     -0.16794379     -1.22867285
H       2.66703694     -0.96987994      0.35659156
H       2.73681243      0.78929407      0.26035221
H       0.50856838     -2.17809470      0.07482834
H      -1.94680559     -2.06877932      0.25048899
H      -1.77626058      2.23098861      0.01526161
H       0.67929643      2.12628454     -0.16064892
