24
N[C@H](Cc1ccc(O)cc1)C(=O)O
N      -1.44867709      1.12502046     -1.57047900
C      -1.69939211      1.06357902     -0.09212130
C      -1.27278550     -0.27149540      0.53800498
C       0.20651097     -0.54698466      0.39508888
C       1.13870320      0.16497011      1.16508874
C       2.50755027     -0.07237026      1.02089522
C       2.94374197     -1.02376757      0.10553067
O       4.26967591     -1.28719730     -0.06922810
C       2.03533175     -1.74114490     -0.66259746
C       0.66747291     -1.50594846     -0.51788866
C      -3.19855841      1.30062791      0.14766327
O      -3.79422244      1.08491909      1.19044971
O      -3.79371955      1.81594050     -0.96127378
H      -0.43126310      1.19701585     -1.69361437
H      -1.66306269      0.20178346     -1.96417769
H      -1.17183819      1.90750571      0.36751320
H      -1.85157213     -1.09664251      0.10125733
H      -1.52214676     -0.28069148      1.60751082
H       0.80407318      0.90657502      1.88795535
H       3.21096056      0.48875252      1.62803375
H       4.77954671     -0.74272108      0.55277577
H       2.39191491     -2.48583908     -1.36886420
H      -0.03133549     -2.08154024     -1.12053496
H      -3.07690887      1.87965327     -1.64322047
