63
O=c1[nH]c2ccccc2n1C1CCN(CCCC(c2ccc(F)cc2)c2ccc(F)cc2)CC1
O      -4.19648642      2.77281788     -1.89630021
C      -5.10093839      2.07686368     -1.46763677
N      -6.45341965      2.21648596     -1.81294830
C      -7.19605889      1.25718135     -1.13958486
C      -8.55306229      1.03091157     -1.18219373
C      -9.04208412     -0.01451990     -0.39477432
C      -8.17246777     -0.79056878      0.39960278
C      -6.79456684     -0.53828369      0.42408988
C      -6.32566200      0.49641527     -0.35773375
N      -5.02645075      0.99877763     -0.55524012
C      -3.81770429      0.48957992      0.07068571
C      -3.13335910      1.53830143      0.94923093
C      -1.87631723      0.95562266      1.59341125
N      -0.93519399      0.43530113      0.58803913
C       0.28522998     -0.05872358      1.24905415
C       1.44246827     -0.30264805      0.26971617
C       2.72473962     -0.69259714      1.02199971
C       3.90127468     -1.02612417      0.07017055
C       4.37512216      0.19591220     -0.71256695
C       4.24476829      0.22346806     -2.11267607
C       4.67203361      1.33293433     -2.84420580
C       5.23248539      2.41682761     -2.18129023
F       5.64440368      3.47980641     -2.88465861
C       5.37368850      2.41365899     -0.79988247
C       4.94624178      1.30604702     -0.06562855
C       5.06994898     -1.74288459      0.75184404
C       5.87748271     -2.60525611     -0.01545081
C       6.96253140     -3.27005612      0.55833686
C       7.25206105     -3.07304149      1.90113241
F       8.29285416     -3.71004518      2.45346073
C       6.47971334     -2.22098943      2.67922866
C       5.39354902     -1.55430419      2.10676083
C      -1.56792409     -0.58883251     -0.25648277
C      -2.82061754     -0.05540887     -0.95342602
H      -6.79210802      2.91487382     -2.45327421
H      -9.21503990      1.63072913     -1.79459591
H     -10.10769087     -0.23483858     -0.39273404
H      -8.58114801     -1.59879143      1.00317921
H      -6.14164854     -1.14370284      1.03951345
H      -4.10313698     -0.34458937      0.72261748
H      -2.86331041      2.42424536      0.36134741
H      -3.82247372      1.88031853      1.73100243
H      -2.15825548      0.16626491      2.30291819
H      -1.39640864      1.75449994      2.17209221
H       0.62687388      0.69372277      1.97209564
H       0.07418715     -0.97262470      1.81950602
H       1.61481101      0.60566356     -0.31943624
H       1.18983616     -1.10630060     -0.43020732
H       2.50355280     -1.57298287      1.64035145
H       2.99365158      0.11694229      1.71187076
H       3.49525844     -1.75423881     -0.64828207
H       3.80487248     -0.61789807     -2.64357343
H       4.56998684      1.35881133     -3.92419724
H       5.81615508      3.27105624     -0.30344461
H       5.06770043      1.31493698      1.01480203
H       5.66602222     -2.75824648     -1.07211686
H       7.58341758     -3.93381915     -0.03437044
H       6.72979392     -2.07690741      3.72542484
H       4.81299784     -0.88351066      2.73444970
H      -0.88007773     -0.91799339     -1.04212221
H      -1.82812879     -1.47362731      0.33922080
H      -3.28548255     -0.85891171     -1.53778581
H      -2.53249107      0.72428922     -1.66947652
