62
COc1c(C)c2c(c(O)c1C/C=C(\C)CCC(=O)OCCN1CCOCC1)C(=O)OC2
C       4.50482093     -1.01943401     -2.97586520
O       3.54555015     -0.92228260     -1.92210497
C       4.06519971     -0.21966172     -0.85981423
C       4.78166757     -0.92716105      0.13322530
C       5.01835022     -2.40656118      0.04472231
C       5.30789447     -0.18788715      1.18520523
C       5.08699611      1.16973442      1.26279654
C       4.34399564      1.87080235      0.32980488
O       4.12070246      3.21227230      0.46233974
C       3.80426942      1.17256173     -0.75983567
C       2.93001662      1.88767150     -1.76773690
C       1.55146984      2.18407393     -1.23560433
C       0.39013155      1.55239031     -1.49932554
C       0.24918170      0.36729314     -2.41407103
C      -0.89823713      2.05765616     -0.87452723
C      -1.20819492      1.44057199      0.48846565
C      -1.66338501      0.00417306      0.42665459
O      -1.24125870     -0.88046188      1.16197809
O      -2.66025307     -0.15381771     -0.48772333
C      -3.17233178     -1.48921223     -0.62166998
C      -4.17356052     -1.85209729      0.49432323
N      -5.55278775     -1.36222553      0.26128454
C      -5.63397031      0.11483258      0.28144342
C      -7.08526481      0.60799396      0.17319797
O      -7.90259488      0.06421169      1.21320189
C      -7.88108386     -1.36684663      1.15179714
C      -6.45117586     -1.89717085      1.31034309
C       5.73177281      1.68304060      2.45524442
O       5.71287424      2.84549604      2.80948561
O       6.34197556      0.62807575      3.06892966
C       6.12010792     -0.60420029      2.34997137
H       4.08150668     -1.66007877     -3.75309099
H       4.70439954     -0.04063933     -3.41881898
H       5.44159076     -1.47607749     -2.63662849
H       5.03090462     -2.86240532      1.04032250
H       4.22749081     -2.91178460     -0.51972192
H       5.97946691     -2.59908173     -0.44289817
H       4.55692364      3.52349315      1.28206658
H       3.40895120      2.83608068     -2.03985498
H       2.88248724      1.34009494     -2.71150168
H       1.52878361      3.03846001     -0.55703162
H      -0.08986255     -0.51013956     -1.85584236
H      -0.48722300      0.58216896     -3.19649354
H       1.17714037      0.09329849     -2.91660559
H      -1.72973422      1.91652804     -1.57586444
H      -0.82280947      3.14539469     -0.73889478
H      -2.00942793      2.00797086      0.97916819
H      -0.32657914      1.49665553      1.13889838
H      -2.33641191     -2.20144739     -0.63320486
H      -3.65128468     -1.56119559     -1.60602686
H      -4.21295581     -2.94923373      0.52415701
H      -3.80851438     -1.50874623      1.47192593
H      -5.19918551      0.49822789      1.21439180
H      -5.07545307      0.53855457     -0.55743819
H      -7.11038313      1.69833184      0.26884769
H      -7.52354963      0.34973581     -0.79767646
H      -8.50867863     -1.74013210      1.96491859
H      -8.33145674     -1.69894654      0.20864388
H      -6.47568618     -2.99113763      1.25639528
H      -6.07634968     -1.61508366      2.30190893
H       7.08918541     -1.01466026      2.05453014
H       5.58383654     -1.29803693      3.00538695
