68
CC(C)(C)C(=O)OCC(=O)C1(O)CCC2C3CCC4=CC(=O)C=CC4(C)C3C(O)CC21C
C       6.75175182     -1.32940067     -1.67972260
C       6.46216975     -0.42158928     -0.47605786
C       6.58388276      1.05559892     -0.87835742
C       7.47935412     -0.71810384      0.63764966
C       5.04826970     -0.70284703      0.03571410
O       4.77530092     -1.18426692      1.12871568
O       4.11142169     -0.36425235     -0.89782046
C       2.76278990     -0.46578539     -0.43589968
C       2.40378286      0.65518329      0.53930149
O       3.13344033      1.64886575      0.67305871
C       1.07785417      0.58507021      1.34599514
O       1.20750812      1.55779225      2.39734712
C       0.85099316     -0.77978736      1.99438791
C      -0.10702526     -1.53401436      1.07427402
C      -0.58176064     -0.54677102     -0.01788707
C      -2.04924330     -0.81855448     -0.42781114
C      -2.33936148     -0.34273233     -1.86558828
C      -3.77306397     -0.63281907     -2.30457114
C      -4.76843593     -0.11272852     -1.30009822
C      -5.73457622      0.74484680     -1.67451200
C      -6.68160919      1.32420558     -0.69865568
O      -7.56948157      2.09202791     -1.04912032
C      -6.52142980      0.93811956      0.71738706
C      -5.56251830      0.08056057      1.09272390
C      -4.56515273     -0.56947348      0.14230897
C      -4.86715510     -2.08753175      0.22880390
C      -3.08627838     -0.28667849      0.60424407
C      -2.79876554      1.18661727      0.98747549
O      -3.05646152      2.07520750     -0.08617148
C      -1.36461546      1.36551462      1.49579037
C      -0.24012370      0.85498804      0.54282709
C       0.01170820      1.90753829     -0.55390118
H       7.77980166     -1.20168290     -2.03430106
H       6.61090137     -2.38401047     -1.42067822
H       6.08230304     -1.11089766     -2.51856803
H       7.59792515      1.29246275     -1.22100449
H       6.35101994      1.71276011     -0.03363339
H       5.89503242      1.31282551     -1.69028995
H       7.29009404     -0.10054143      1.52356956
H       7.42762998     -1.76633087      0.95341137
H       8.50287927     -0.51947864      0.30372769
H       2.12942259     -0.36936398     -1.32041228
H       2.59719872     -1.45364407      0.00201850
H       1.93244547      2.16295362      2.13204819
H       1.77913275     -1.33798919      2.15287437
H       0.39499994     -0.67356763      2.98604161
H      -0.93210743     -1.95078168      1.65880627
H       0.40229547     -2.38213797      0.60676866
H       0.03725703     -0.74029117     -0.90102417
H      -2.15169943     -1.91203314     -0.46146451
H      -1.65547722     -0.84647157     -2.56080198
H      -2.14657646      0.72645165     -1.97841688
H      -3.91187968     -1.71273594     -2.43437338
H      -3.93609071     -0.18684329     -3.29384914
H      -5.85925248      1.08078675     -2.69733009
H      -7.21903627      1.37962634      1.41811064
H      -5.48963139     -0.18158871      2.14550503
H      -5.89690424     -2.30740703     -0.08065272
H      -4.21078305     -2.69091550     -0.40468154
H      -4.74692817     -2.45714082      1.25521700
H      -2.93437561     -0.86087889      1.53020987
H      -3.46673336      1.48198079      1.80523840
H      -2.99980308      2.98436960      0.25768989
H      -1.19191992      2.42771967      1.71664854
H      -1.30445546      0.84058317      2.45718694
H       0.43657912      2.82201643     -0.12301054
H      -0.89451491      2.20125459     -1.08157996
H       0.70808146      1.54614133     -1.31749097
