25
N=C(c1ccccc1)c1ccccc1
N      -0.22122547     -1.77681382     -1.68192018
C      -0.11923734     -0.86283945     -0.76454573
C      -1.34229247     -0.37729294     -0.05841550
C      -1.27463600      0.23452485      1.20001783
C      -2.44205398      0.67360994      1.83040205
C      -3.67987898      0.49784271      1.21289755
C      -3.75552316     -0.12260951     -0.03293164
C      -2.59100879     -0.56255200     -0.66527060
C       1.21047478     -0.29993793     -0.42489896
C       1.44132384      1.07451636     -0.53376260
C       2.70233606      1.58622938     -0.22698350
C       3.72539024      0.72691117      0.17865259
C       3.49382455     -0.64655726      0.27531831
C       2.23559958     -1.16485123     -0.03084844
H       0.69613151     -1.98850593     -2.09046804
H      -0.32620737      0.36438293      1.71353348
H      -2.38594301      1.14667436      2.80761583
H      -4.58728514      0.83706269      1.70619981
H      -4.71968469     -0.26943609     -0.51270527
H      -2.65882904     -1.05152439     -1.63491877
H       0.65187039      1.74466644     -0.86452185
H       2.89048001      2.65394384     -0.30938531
H       4.70799765      1.12847969      0.41563203
H       4.29456434     -1.31204216      0.58852183
H       2.05381251     -2.23388164      0.04905865
