76
CCCCCCCCCC(C)(C)SSC(C)(C)CCCCCCCCC
C       9.20227458     -2.42316648      0.28687277
C       8.15606895     -3.40938804      0.78311159
C       6.86071855     -3.38899984     -0.03158520
C       6.09107294     -2.07039459      0.08430867
C       4.75599347     -2.14297131     -0.66204378
C       3.89664307     -0.88495190     -0.49699523
C       4.52981903      0.36549777     -1.11285596
C       3.57231652      1.56302614     -1.17927152
C       3.15160487      2.07548893      0.20703250
C       2.30162334      3.37573228      0.23494653
C       1.95134035      3.70958477      1.69347652
C       3.09643454      4.55976924     -0.34620186
S       0.75876474      3.24135203     -0.79672324
S      -0.31270590      1.66562290     -0.01813615
C      -1.87071268      2.39221205      0.70011541
C      -2.66456824      3.10950929     -0.40354836
C      -1.53680767      3.39336171      1.81686397
C      -2.70520255      1.23802315      1.32550132
C      -3.25798289      0.18546297      0.35056443
C      -4.04287076     -0.89473601      1.10255244
C      -4.55406941     -2.01979616      0.19727129
C      -5.51040522     -1.59207000     -0.92092954
C      -6.76504462     -0.83898107     -0.46779254
C      -7.65285905     -1.57784283      0.53903084
C      -8.17055623     -2.94475315      0.08591888
C      -9.02313275     -2.88440216     -1.17176115
H       8.87641009     -1.38826048      0.42662683
H      10.13569271     -2.55417427      0.84389094
H       9.41687473     -2.57902960     -0.77523135
H       7.93678757     -3.20791868      1.83835326
H       8.58012839     -4.41966372      0.73456442
H       6.22280203     -4.20900840      0.32112901
H       7.08555309     -3.59415199     -1.08541869
H       6.69630440     -1.25667302     -0.32751139
H       5.90819554     -1.84357505      1.14148789
H       4.18151199     -2.99923018     -0.28712441
H       4.93784043     -2.32661907     -1.72805720
H       3.70142521     -0.72318824      0.56913532
H       2.92600541     -1.06948846     -0.97406088
H       5.42425049      0.65313428     -0.54845251
H       4.85859707      0.13608054     -2.13418746
H       4.08289687      2.35973626     -1.73100519
H       2.69362746      1.27861283     -1.76851040
H       4.06298624      2.24719780      0.79753285
H       2.60862092      1.28065327      0.73314765
H       2.86261441      3.88651051      2.27735032
H       1.34378171      4.61775619      1.76977276
H       1.41894560      2.89080764      2.18677002
H       3.32203229      4.43453974     -1.41078145
H       4.05252648      4.67886469      0.17715951
H       2.55035173      5.50467930     -0.23439236
H      -3.65185063      3.41072080     -0.03349110
H      -2.82359362      2.47464705     -1.28214073
H      -2.16380390      4.02309589     -0.74248782
H      -2.45535791      3.77270430      2.28089011
H      -0.94333757      2.93044028      2.61281208
H      -0.99703302      4.26809142      1.44217931
H      -2.10611009      0.73245066      2.09594365
H      -3.56152331      1.67665131      1.85752304
H      -3.91717556      0.67228260     -0.37470675
H      -2.44550932     -0.28966432     -0.20855535
H      -4.87905243     -0.43751396      1.64354780
H      -3.39291054     -1.34393400      1.86406322
H      -5.04268020     -2.77522226      0.82415607
H      -3.69354630     -2.52312717     -0.26158807
H      -5.80676623     -2.48579980     -1.48309778
H      -4.96992916     -0.96342501     -1.63889617
H      -7.35743456     -0.58786569     -1.35603686
H      -6.47320947      0.12369285     -0.03099476
H      -8.51139451     -0.93558976      0.77334044
H      -7.10807516     -1.70582877      1.48168697
H      -7.33648108     -3.63728839     -0.06993999
H      -8.77646683     -3.36863041      0.89587566
H      -8.43212754     -2.58353493     -2.04198000
H      -9.44905990     -3.87011255     -1.38477743
H      -9.85009100     -2.17702170     -1.05298506
