15
C#CCCCC#C
C      -3.29961644     -0.00444330     -0.93114020
C      -2.17744815      0.27096355     -0.60420261
C      -0.80253377      0.61196154     -0.20619500
C      -0.20331941     -0.47982255      0.68333773
C       1.18996429     -0.12161502      1.19977323
C       2.19544472     -0.10216712      0.12706932
C       3.01941412     -0.08598523     -0.74630518
H      -4.29509793     -0.24893299     -1.22263733
H      -0.80759387      1.56781192      0.33068016
H      -0.19175783      0.75034493     -1.10530099
H      -0.17027100     -1.43097153      0.13548073
H      -0.86080415     -0.64133301      1.54780769
H       1.48812259     -0.86250977      1.95109963
H       1.16446529      0.84965238      1.70711171
H       3.75103154     -0.07295381     -1.52126906
