55
COc1c(N2C[C@@H]3CCCN[C@@H]3C2)c(F)cc2c(=O)c(C(=O)O)cn(C3CC3)c12.Cl
C      -0.70007079     -1.71509911     -1.72364212
O      -0.63215767     -1.44563570     -0.33823965
C      -0.73263423     -0.13309430      0.10969269
C       0.42861657      0.64157769      0.17496801
N       1.65607358      0.05594533     -0.22676038
C       2.57278405     -0.73849541      0.60225882
C       3.66188927     -1.09294134     -0.33853037
C       5.00680520     -1.28179553      0.29105259
C       5.55553662     -0.07440082      0.96186550
C       5.14224366      1.23224415      0.44858064
N       4.01592122      1.28831896     -0.41432484
C       3.74412637      0.15761073     -1.20851897
C       2.23087758      0.22706315     -1.54499685
C       0.33754439      1.93095672      0.60761077
F       1.47528620      2.67930748      0.66883017
C      -0.84591915      2.49811246      0.98043954
C      -2.01658512      1.74804349      0.92623327
C      -3.20475312      2.34022902      1.30934405
O      -3.20829363      3.53041752      1.69131943
C      -4.34042990      1.57479424      1.24885673
C      -5.64080323      2.14820897      1.64192466
O      -5.71276736      3.33096664      2.03051865
O      -6.78226594      1.36167783      1.57586603
C      -4.27717488      0.26462733      0.82083485
N      -3.09869787     -0.30059910      0.44955917
C      -3.06361993     -1.71059494      0.08259353
C      -3.96474745     -2.14795283     -0.97271546
C      -4.38480506     -2.49650017      0.38413696
C      -1.93589813      0.41710935      0.48416447
Cl      0.68412222      0.00000000      0.00000000
H      -0.99037005     -0.86461250     -2.34220062
H      -1.35599982     -2.57436455     -1.99041633
H       0.31569972     -2.05880585     -2.07201650
H       2.95089046     -0.14649809      1.46227252
H       2.00167630     -1.61291107      0.97449306
H       3.42338298     -1.99188382     -0.92819012
H       5.69354812     -1.62821719     -0.53288383
H       4.92946162     -2.15953063      0.97484470
H       5.29222379     -0.14456638      2.05250014
H       6.68201195     -0.17598048      0.95779842
H       4.94686438      1.95972167      1.28475526
H       6.00711663      1.69615903     -0.10607338
H       4.00231378      2.16715705     -0.95962444
H       4.34192019      0.01762634     -2.10568598
H       2.06333987     -0.61364475     -2.19774745
H       2.00319128      1.22098132     -1.97681048
H      -0.91797585      3.52222286      1.32239971
H      -7.56403841      1.61354503      0.98803057
H      -5.19250356     -0.27255171      0.77667221
H      -2.25872415     -2.29986451      0.57759227
H      -3.69479775     -2.94408057     -1.69935770
H      -4.56057361     -1.34651897     -1.47097921
H      -5.14039192     -2.05672989      0.99990303
H      -4.26434718     -3.59675410      0.61298992
H      -0.68412222      0.00000000      0.00000000
