54
O=S(=O)(Cc1ccccc1)NCC(c1ccccc1)N1CCCCCC1
O       2.30047538     -0.93846631      0.20531458
S       2.32569482      0.19496986      1.10436984
O       2.31802816      0.03030250      2.54240051
C       3.64289531      1.32810725      0.64165577
C       4.97566220      0.66740807      0.87665581
C       5.59697662     -0.06764426     -0.14352552
C       6.83206365     -0.67950168      0.07641555
C       7.45697137     -0.56604061      1.31654723
C       6.84595510      0.15569304      2.33981382
C       5.61086736      0.76850789      2.12288640
N       0.96576725      1.13940142      0.76986315
C       0.37463677      1.04608575     -0.59371381
C      -0.71596794     -0.07081205     -0.63175506
C      -1.39942985     -0.20248065     -1.99052501
C      -1.84305848      0.90448168     -2.73189328
C      -2.46608079      0.73542496     -3.97156081
C      -2.65374977     -0.54161940     -4.49293623
C      -2.21915718     -1.65164896     -3.77579950
C      -1.59817989     -1.48341236     -2.53659534
N      -1.63327279      0.03211639      0.54251900
C      -2.17324376     -1.26784768      0.94190528
C      -3.10887533     -1.25456823      2.15439701
C      -4.56486841     -0.98706497      1.78367996
C      -4.85920635      0.43383750      1.32506522
C      -4.00105363      0.92092738      0.16091104
C      -2.54308674      1.17377381      0.55582730
H       3.51541639      1.58680611     -0.41403240
H       3.54109353      2.23504442      1.24586851
H       5.11946454     -0.17926268     -1.11514615
H       7.30369984     -1.25138889     -0.71874230
H       8.41641362     -1.04711731      1.48837746
H       7.32772723      0.23525043      3.31104576
H       5.14298338      1.31621546      2.93930105
H       0.25076408      0.99279929      1.49451813
H      -0.04916308      2.03153817     -0.81458343
H       1.15095346      0.87439159     -1.34812911
H      -0.14233007     -0.99715155     -0.49172045
H      -1.72201392      1.91664597     -2.35644797
H      -2.80726073      1.60350466     -4.52996770
H      -3.13890859     -0.67172135     -5.45652709
H      -2.36277604     -2.65058272     -4.17899232
H      -1.26588876     -2.36722015     -1.99459025
H      -2.68196919     -1.76123191      0.10565446
H      -1.32278902     -1.90863741      1.20931580
H      -3.06618988     -2.24800421      2.62013705
H      -2.76136507     -0.54720006      2.91709922
H      -4.88018028     -1.69260391      1.00481994
H      -5.19143574     -1.20005536      2.65867835
H      -4.75161258      1.12042965      2.17407761
H      -5.91340051      0.48409905      1.02484542
H      -4.42349488      1.87459040     -0.18159107
H      -4.07680157      0.23410653     -0.68930537
H      -2.15520610      1.98761774     -0.06525402
H      -2.52249314      1.59582891      1.56936793
