31
COc1ccc(S(=O)(=O)c2coc(S(N)(=O)=O)c2)cc1
C       5.24833491      1.48844508     -0.35984218
O       4.45405234      1.24459369      0.79450880
C       3.37792106      0.41482463      0.64369897
C       2.63748216      0.20517840      1.81221313
C       1.51104067     -0.61917008      1.80603356
C       1.11910369     -1.22977185      0.61351467
S      -0.30118656     -2.28409143      0.60152329
O      -0.34447305     -3.01346715     -0.64913338
O      -0.41463362     -2.93507627      1.89033295
C      -1.64175318     -1.22013036      0.51569294
C      -2.51083517     -0.92468797      1.53310772
O      -3.44245764     -0.03445813      1.10805142
C      -3.18552616      0.25706481     -0.21992495
S      -4.21071992      1.39899511     -1.13478155
N      -5.81276656      1.08549998     -0.74382013
O      -3.90703544      2.70819921     -0.60809266
O      -4.04444211      1.05766929     -2.52786023
C      -2.06741721     -0.47437300     -0.60828530
C       1.85790587     -1.04174023     -0.55748635
C       2.98554935     -0.21401410     -0.54025988
H       5.70202689      0.56283985     -0.72922653
H       4.66463269      1.98344904     -1.14297276
H       6.05892611      2.16446007     -0.07114575
H       2.94824512      0.68697984      2.73712793
H       0.95818973     -0.77896950      2.72902520
H      -2.59937240     -1.24704522      2.56261525
H      -6.14533800      1.79075641     -0.08505169
H      -6.37159375      1.04677083     -1.59655368
H      -1.63241808     -0.46110928     -1.59952325
H       1.57065909     -1.53286881     -1.48532931
H       3.53789918     -0.08475287     -1.46574930
