20
Nc1ccc(S(=O)(=O)O)cc1N
N      -2.90520344     -0.71286658     -0.80991954
C      -1.56210313     -0.52205629     -0.41398377
C      -0.57558479     -1.42314963     -0.82683968
C       0.75694745     -1.21895811     -0.46796079
C       1.09628654     -0.09629901      0.29017718
S       2.78330006      0.15965375      0.75346717
O       3.08808515     -0.75272919      1.83099338
O       3.01415773      1.58459090      0.86077422
O       3.63395839     -0.29478401     -0.54078037
C       0.13374044      0.85160648      0.64591480
C      -1.18496054      0.68210552      0.22327628
N      -2.17712181      1.61128743      0.60720615
H      -3.52608152     -0.30742552     -0.11071856
H      -3.12840632     -1.69167341     -0.96402708
H      -0.84282842     -2.30212975     -1.40715152
H       1.51461218     -1.94062343     -0.76487355
H       4.18632381      0.47034531     -0.80806416
H       0.41403601      1.72696286      1.22598709
H      -2.91572778      1.63461941     -0.09446744
H      -1.80343000      2.54152329      0.77099018
