57
CN(c1nccc(=O)[nH]1)C1CCN(c2nc3ccccc3n2Cc2ccc(F)cc2)CC1
C       3.63828051      1.43690175     -1.08446201
N       3.80604595      0.29091525     -0.19370456
C       5.01945174     -0.00375819      0.41312803
N       5.10458562     -0.84544209      1.40355017
C       6.33259953     -1.08605345      1.95519867
C       7.47798205     -0.53384356      1.55285675
C       7.40163837      0.40069613      0.42838955
O       8.40324587      0.93978426     -0.02770127
N       6.14903423      0.61590459     -0.06474507
C       2.57269462     -0.39493783      0.26259056
C       1.71642905      0.52052349      1.13983191
C       0.42868403     -0.18503630      1.55644047
N      -0.30301992     -0.75640046      0.40846394
C      -1.06991884      0.12291008     -0.29869417
N      -0.79159553      1.37593214     -0.57558629
C      -1.83948404      1.83460243     -1.32986492
C      -2.03332512      3.09857344     -1.90690653
C      -3.19669751      3.33029514     -2.64975669
C      -4.14959717      2.32379592     -2.81290355
C      -3.97495315      1.05792072     -2.24152375
C      -2.80287422      0.84635139     -1.50435115
N      -2.30569562     -0.23041492     -0.80064037
C      -2.98197671     -1.50347849     -0.61418716
C      -4.08452980     -1.42306802      0.41751454
C      -5.42117787     -1.65443054      0.05206098
C      -6.43686958     -1.58967399      1.00766602
C      -6.11938315     -1.29963061      2.32890311
F      -7.09578520     -1.24026995      3.24402223
C      -4.80441493     -1.07508982      2.71488906
C      -3.78706807     -1.13967998      1.76191154
C       0.52245723     -1.67211748     -0.40056423
C       1.78165235     -0.97828951     -0.91339994
H       2.59519322      1.63347524     -1.34690955
H       4.18084834      1.26730235     -2.02026257
H       4.02314897      2.34688538     -0.61102602
H       6.33831703     -1.78784945      2.78504603
H       8.43885040     -0.73766836      1.99992363
H       6.09999537      1.23821654     -0.85071550
H       2.84725072     -1.25969690      0.88102932
H       1.47812195      1.45314720      0.61809391
H       2.27839284      0.81182351      2.03571983
H       0.67050631     -1.00288356      2.24712666
H      -0.21444394      0.50393060      2.11897027
H      -1.28931106      3.87571382     -1.77316029
H      -3.35790662      4.30624203     -3.10078692
H      -5.04840923      2.52833852     -3.39103914
H      -4.72474014      0.28515501     -2.36636909
H      -3.37156596     -1.80599916     -1.59351476
H      -2.26047418     -2.26954011     -0.31544435
H      -5.68270073     -1.88440681     -0.97844350
H      -7.47209476     -1.76330459      0.73168072
H      -4.57847585     -0.85020609      3.75232577
H      -2.75866910     -0.96230993      2.07278235
H      -0.04780045     -2.07264398     -1.24792616
H       0.79721569     -2.53566491      0.21810302
H       2.40223544     -1.69880843     -1.45986458
H       1.50010097     -0.20273946     -1.63376494
