40
COC1CCCCCCCCCCC1
C       3.67072378     -0.14311969     -0.83059807
O       3.05026487      0.54333759      0.24876487
C       1.68147225      0.15465231      0.45532378
C       1.64759995     -1.06739666      1.40275201
C       0.27290305     -1.72968688      1.58446661
C      -0.21009222     -2.51307883      0.34865619
C      -1.74563558     -2.60027363      0.24204631
C      -2.38451348     -1.49665466     -0.62575306
C      -1.99336337     -0.10067282     -0.16384427
C      -2.42621899      1.04153146     -1.07280209
C      -1.67848579      2.33603657     -0.70256416
C      -0.18737334      2.32506071     -1.09939176
C       0.79546325      2.55373191      0.06267397
C       0.96233439      1.38556846      1.05300893
H       4.70744198      0.19698380     -0.90083623
H       3.67095369     -1.22376031     -0.66616513
H       3.16491011      0.09387162     -1.77159110
H       1.23871557     -0.10716135     -0.50955469
H       2.35977887     -1.82768494      1.06100013
H       2.01982250     -0.75242604      2.38666851
H       0.34499776     -2.43908578      2.41951782
H      -0.46035029     -0.98616548      1.90622112
H       0.18869432     -3.53251396      0.43112206
H       0.20259687     -2.10668937     -0.58068676
H      -2.19686723     -2.59818701      1.24139471
H      -2.00558442     -3.56345062     -0.21469202
H      -2.06820731     -1.64048545     -1.66620865
H      -3.47496511     -1.60503500     -0.60617850
H      -0.91247400     -0.07355002     -0.13060625
H      -2.36319480      0.07554148      0.85300411
H      -2.23690549      0.79513649     -2.12405525
H      -3.50573912      1.19900860     -0.96692488
H      -1.80227762      2.54566343      0.36631355
H      -2.16560668      3.16189909     -1.23647936
H       0.07540042      1.41856784     -1.65405318
H      -0.03627164      3.15097739     -1.80762379
H       0.47459901      3.44112272      0.62277410
H       1.77707839      2.80141592     -0.35990596
H       1.56268082      1.75961261      1.89333605
H      -0.01430540      1.12735853      1.46832594
