27
COC1OC(CO)C(O)C(O)C1O
C      -2.88388773     -0.36942338     -1.85226695
O      -1.90964624     -1.25339116     -1.31198278
C      -1.04967123     -0.58927013     -0.37580811
O      -0.26974450      0.41229116     -1.02558066
C       0.57473329      1.10756121     -0.09878344
C       1.28153715      2.25365037     -0.83823673
O       2.00945789      3.09741766      0.04735713
C       1.59965977      0.13743293      0.52176916
O       2.39564853      0.81097942      1.50532175
C       0.89200597     -1.05738647      1.16765406
O       0.23832732     -0.60594404      2.37076724
C      -0.13344151     -1.67645609      0.22087568
O      -0.90319948     -2.65098705      0.94518374
H      -3.49886843      0.06052315     -1.05579140
H      -2.40861539      0.42536112     -2.43460602
H      -3.53270487     -0.94351854     -2.51936400
H      -1.67762445     -0.14275891      0.40688482
H      -0.03897033      1.55726526      0.69372434
H       1.96765816      1.86520459     -1.59911442
H       0.54598091      2.87058583     -1.36555731
H       2.53171094      2.51123097      0.63567049
H       2.27053575     -0.23370480     -0.26235638
H       1.88634103      0.73479442      2.34207190
H       1.62286125     -1.80535699      1.49512346
H      -0.30420959     -1.37165090      2.65789446
H       0.38949880     -2.20136260     -0.58811677
H      -1.59537301     -2.94308701      0.31726673
