25
O=C(O)CCCOc1ccc(Cl)cc1Cl
O      -2.73702156     -1.92712199     -1.18091458
C      -3.43133828     -1.32237638     -0.38315966
O      -4.72585901     -1.06722890     -0.65455894
C      -3.02296211     -0.77352878      0.95732145
C      -1.56564700     -1.06539830      1.30068246
C      -0.58029557     -0.24832849      0.46668021
O       0.73987908     -0.54259944      0.94616265
C       1.67074057      0.21055607      0.27979184
C       2.16063923     -0.26073253     -0.94010228
C       3.13856550      0.46619396     -1.62004420
C       3.63043528      1.65006870     -1.06880683
Cl      4.83637182      2.54312143     -1.91125639
C       3.16003960      2.11411770      0.15901684
C       2.18234897      1.38714597      0.83889796
Cl      1.62340866      1.97490153      2.36218313
H      -4.87447921     -1.47360225     -1.53430998
H      -3.20569747      0.30636415      0.96713626
H      -3.66204412     -1.24434928      1.71298991
H      -1.39674652     -0.84176659      2.36177866
H      -1.34491638     -2.13377037      1.18270260
H      -0.65936559     -0.51424605     -0.59323329
H      -0.79431633      0.82154602      0.58346382
H       1.78597655     -1.19273333     -1.35573355
H       3.51650968      0.10197073     -2.57211129
H       3.55577421      3.03179644      0.58492504
