25
O=c1c2ccccc2nc2n1CCC2O
O       0.32549518     -2.46787004     -1.04905237
C       0.22954854     -1.32777488     -0.60960201
C       1.42691131     -0.53274731     -0.25335894
C       2.71107782     -1.04574911     -0.46668649
C       3.82294020     -0.27785357     -0.12328172
C       3.64860335      0.99141210      0.42978821
C       2.36194637      1.49624133      0.64208930
C       1.23625452      0.74180114      0.30391966
N      -0.03990248      1.29157322      0.54467896
C      -1.04586525      0.56914273      0.18346975
N      -0.95980618     -0.67857504     -0.39667955
C      -2.26482274     -1.25543153     -0.58625663
C      -3.19994462     -0.05419547     -0.56257022
C      -2.50161864      0.93620561      0.36818319
O      -2.90299980      0.71029475      1.70836699
H       2.84310926     -2.03589507     -0.89683357
H       4.82475739     -0.66855628     -0.28567084
H       4.51530187      1.59074852      0.69876413
H       2.23362372      2.48483343      1.07569718
H      -2.46074477     -1.93839444      0.24793918
H      -2.31313181     -1.81825690     -1.52313528
H      -3.26053685      0.37344357     -1.57099740
H      -4.20716108     -0.32949002     -0.23660679
H      -2.69747406      1.97644114      0.09521899
H      -2.32556123      1.26865211      2.26261629
