29
O=C(NCCc1c[nH]cn1)c1ccccc1
O      -1.49931736      2.58292077      0.38667393
C      -1.21837034      1.42969611      0.07688515
N       0.02844121      1.05260318     -0.36835636
C       1.14746942      1.97691982     -0.35170646
C       2.34254335      1.44582709     -1.14452769
C       2.89924443      0.18433184     -0.57170449
C       4.16477413     -0.06959363     -0.08881506
N       4.14161422     -1.37580628      0.31506678
C       2.88953956     -1.86199850      0.06837502
N       2.11436613     -0.94689147     -0.46638564
C      -2.23550914      0.34523177      0.20262089
C      -2.13411296     -0.86290632     -0.50079457
C      -3.11633593     -1.84570450     -0.35085871
C      -4.20419674     -1.62575075      0.49371207
C      -4.31790952     -0.42127962      1.18633927
C      -3.33881542      0.56318504      1.03883002
H       0.29165328      0.07007019     -0.31278186
H       1.41675755      2.14700789      0.69737333
H       0.81436048      2.93313351     -0.77043388
H       2.04496022      1.25567473     -2.18299371
H       3.12409837      2.21444116     -1.16841466
H       5.04925508      0.54540342     -0.00052512
H       4.90833195     -1.89346051      0.72234892
H       2.60630232     -2.88068983      0.29788455
H      -1.31056866     -1.04891641     -1.18478917
H      -3.03541983     -2.78059334     -0.89989157
H      -4.96827661     -2.39087572      0.60639825
H      -5.16917477     -0.24497143      1.83886565
H      -3.43570440      1.50299179      1.57897503
