39
CCn1ccc(NS(=O)(=O)c2ccc(NC(C)=O)cc2)nc1=O
C      -5.56680365      1.14425565      0.62753973
C      -4.09776955      1.53402447      0.69545728
N      -3.25638969      0.63314762     -0.09104393
C      -2.72899476     -0.49030916      0.50526114
C      -1.98369583     -1.35140624     -0.18606778
C      -1.78863432     -0.98166646     -1.59025742
N      -0.99473974     -1.80642378     -2.39344342
S       0.26873206     -2.80305277     -1.97556820
O      -0.21928402     -3.80437315     -1.05342708
O       0.93970300     -3.16414678     -3.20455758
C       1.34898871     -1.70172912     -1.09542327
C       1.59915746     -1.89785423      0.26265684
C       2.43460443     -1.00867490      0.94749897
C       3.02777850      0.06825170      0.28203314
N       3.87768467      1.00589357      0.90361576
C       4.21852342      1.07401731      2.24271998
C       5.16881498      2.20868633      2.53512501
O       3.80884616      0.35161333      3.14423447
C       2.78269582      0.23852181     -1.08844522
C       1.94708127     -0.64247603     -1.78036840
N      -2.29905968      0.03281371     -2.18647191
C      -3.07838479      0.89652017     -1.45586253
O      -3.59460663      1.87460990     -1.99029788
H      -6.17147179      1.83692496      1.22086710
H      -5.72365434      0.13304579      1.01706723
H      -5.93458490      1.16547380     -0.40344010
H      -3.97621946      2.55792143      0.32347816
H      -3.75373008      1.53218498      1.73668949
H      -2.95410491     -0.65520210      1.55501878
H      -1.59047510     -2.25616114      0.24818427
H      -0.96442076     -1.54139600     -3.37621292
H       1.15819116     -2.73401777      0.80123214
H       2.60938424     -1.19180710      2.00384849
H       4.26246300      1.72339859      0.30170941
H       5.87087537      2.35616893      1.70941025
H       5.74779918      1.97413092      3.43303747
H       4.59712024      3.12574062      2.69940744
H       3.23704810      1.06014604     -1.63742397
H       1.77153225     -0.49679492     -2.84398670
