83
CCCCC(CC)C(=O)OCC(COC(=O)C(CC)CCCC)OC(=O)C(CC)CCCC
C      -7.92900480     -2.42412079     -1.47494113
C      -7.10478342     -1.22060073     -1.04709189
C      -6.63716118     -1.28524291      0.40937292
C      -5.77164246     -2.49871852      0.78097812
C      -4.47712625     -2.65295720     -0.03890366
C      -3.66443986     -3.89309070      0.37224834
C      -4.34258882     -5.20811916      0.01755423
C      -3.58163504     -1.43699142      0.13316386
O      -3.43735113     -0.81358330      1.17424298
O      -2.92906356     -1.16785334     -1.03300578
C      -2.09448416      0.00283894     -1.03158505
C      -0.77641083     -0.17254453     -0.26086672
C      -0.04770345     -1.45406074     -0.68898464
O       1.06133000     -1.70425644      0.19994448
C       2.30124387     -1.35144880     -0.24442228
O       2.54245249     -0.86062080     -1.33771087
C       3.33471584     -1.65908729      0.83410474
C       3.54047070     -3.17812467      0.93788860
C       4.42219167     -3.58744105      2.10955502
C       4.62288945     -0.83326542      0.63995457
C       5.56368091     -1.32175749     -0.46850754
C       6.76287919     -0.38233616     -0.62076868
C       7.72212402     -0.87095694     -1.69511332
O       0.10464766      0.94247222     -0.54140097
C      -0.15584957      2.10773858      0.11073227
O      -1.09876022      2.28205069      0.86671338
C       0.87495475      3.16600485     -0.26620025
C       2.27454447      2.75524808      0.22294252
C       2.43451502      2.72028865      1.73695547
C       0.40492745      4.55536725      0.21115310
C       1.31002045      5.69990764     -0.25583767
C       0.83368652      7.07785639      0.21346106
C      -0.48644666      7.51150614     -0.40552196
H      -8.33410209     -2.26444677     -2.47971614
H      -7.32273707     -3.33420440     -1.50228643
H      -8.77003746     -2.58816144     -0.79390038
H      -7.71713814     -0.31907754     -1.17014322
H      -6.24748179     -1.10419072     -1.71940485
H      -6.09429630     -0.36162363      0.64110394
H      -7.52037162     -1.28564722      1.06195127
H      -5.52075296     -2.41951059      1.84736669
H      -6.38442103     -3.40109899      0.68330834
H      -4.73982905     -2.73768413     -1.10008050
H      -3.45657212     -3.86940074      1.44969781
H      -2.68733671     -3.87006517     -0.12696867
H      -5.26857356     -5.35025426      0.58096532
H      -3.68034520     -6.04694122      0.25458283
H      -4.57406203     -5.25405816     -1.05072621
H      -2.66643160      0.86223398     -0.66199936
H      -1.87387440      0.23285043     -2.08074184
H      -0.94838828     -0.22751778      0.82058181
H      -0.70309652     -2.32515072     -0.59845781
H       0.28114182     -1.39659361     -1.73279562
H       2.89142876     -1.29955591      1.77462477
H       2.56718014     -3.66986025      1.06189253
H       3.95522880     -3.57711787      0.00466652
H       4.02607466     -3.19795512      3.05274790
H       5.44668042     -3.22444551      1.99147636
H       4.46290881     -4.67904693      2.18539463
H       5.17710551     -0.82267664      1.58724501
H       4.35023156      0.21041550      0.43993715
H       5.93018863     -2.32797067     -0.23646481
H       5.03058934     -1.38527283     -1.42349126
H       6.41508485      0.62440490     -0.88068719
H       7.30001625     -0.30598564      0.33243766
H       8.11614433     -1.86221562     -1.44708913
H       7.22454806     -0.93096855     -2.66849060
H       8.56820457     -0.18291536     -1.78847371
H       0.89012848      3.19328560     -1.36455037
H       3.02821449      3.42987276     -0.19880493
H       2.51856787      1.76109137     -0.16851169
H       1.71133060      2.04336507      2.20053657
H       2.31263272      3.71418716      2.17700660
H       3.43742723      2.36538354      1.99589514
H      -0.61000189      4.72073687     -0.17151323
H       0.32025829      4.57500485      1.30449186
H       1.38509892      5.69135616     -1.35004063
H       2.32324678      5.55191539      0.13485895
H       1.59863167      7.81699563     -0.05271852
H       0.74746669      7.09093411      1.30621551
H      -0.44161580      7.46905009     -1.49870599
H      -1.31519935      6.88287898     -0.06764159
H      -0.71591833      8.54155058     -0.11468372
