39
CC(C)=NNC(=O)NC1c2ccccc2Oc2ccccc21
C       5.77631784      0.29390657      0.06121034
C       4.32795280      0.01873587     -0.26349088
C       3.78763228     -1.32750595      0.16019807
N       3.66409743      0.95054167     -0.88456446
N       2.31901469      0.76899383     -1.08732797
C       1.44084856      0.73622607     -0.00386623
O       1.76317663      0.73024927      1.17814751
N       0.13707398      0.69931119     -0.43768195
C      -0.96829940      0.53434540      0.49236204
C      -2.12681663      1.37464462      0.01659453
C      -2.06347999      2.77735375      0.07149545
C      -3.12409905      3.55336467     -0.39773215
C      -4.25485528      2.93740849     -0.92992430
C      -4.32549619      1.54579503     -0.98950141
C      -3.26730084      0.76826033     -0.51333157
O      -3.42449462     -0.59266648     -0.60835826
C      -2.52133987     -1.39880296      0.04114736
C      -2.85005709     -2.75500550      0.11054991
C      -2.00271828     -3.64907233      0.76366932
C      -0.82563927     -3.18770832      1.34807771
C      -0.49314572     -1.83428063      1.27264972
C      -1.33630410     -0.92578256      0.61060199
H       6.05123023      1.31363782     -0.22192397
H       6.40889054     -0.41164765     -0.48414548
H       5.93638109      0.16563234      1.13516280
H       3.51917078     -1.29308667      1.21910082
H       2.92124683     -1.62640881     -0.43328163
H       4.56403146     -2.08651026      0.02466642
H       1.96989273      1.37266644     -1.82477242
H      -0.01438748      0.32812776     -1.36328216
H      -0.68061748      0.89249591      1.48972959
H      -1.18026322      3.26727190      0.47799457
H      -3.06639701      4.63800279     -0.35002363
H      -5.08167399      3.53988230     -1.29697061
H      -5.20868160      1.06546951     -1.40230981
H      -3.77267661     -3.11312028     -0.33855048
H      -2.26340571     -4.70258160      0.82118900
H      -0.16494362     -3.88034104      1.86355355
H       0.43013517     -1.48780247      1.73475660
