28
Cc1c(Cl)ccc(Cc2c(Cl)cccc2Cl)c1Cl
C       4.35999339      0.82566523      0.08148650
C       3.05630022      0.12037525     -0.20070830
C       2.94250254     -0.81974119     -1.23828355
Cl      4.26928645     -1.23647474     -2.26740417
C       1.73813172     -1.48316371     -1.47299671
C       0.62387363     -1.22314014     -0.67945210
C       0.68510536     -0.28822549      0.36683208
C      -0.54973950     -0.05704221      1.22756274
C      -1.85273109      0.11227659      0.46159053
C      -2.12675009      1.30413021     -0.24096903
Cl     -1.01843763      2.63322127     -0.26691916
C      -3.32126171      1.46946435     -0.95233895
C      -4.26911769      0.45216667     -0.97940729
C      -4.02138628     -0.73291203     -0.29441533
C      -2.82773402     -0.90389435      0.41839782
Cl     -2.61895098     -2.42428801      1.21815826
C       1.92098239      0.35385947      0.61562407
Cl      2.07270984      1.42998252      1.97637609
H       5.06215694      0.78162581     -0.75470126
H       4.19565771      1.89329768      0.26151050
H       4.84467851      0.37887446      0.95545969
H       1.66077387     -2.21468928     -2.27459848
H      -0.29270389     -1.77084731     -0.88788345
H      -0.60307771     -0.88214246      1.94604996
H      -0.45198932      0.83036976      1.86122856
H      -3.51695409      2.39590733     -1.48828093
H      -5.19645166      0.58240806     -1.53171814
H      -4.76486693     -1.52706375     -0.31905721
