56
C[C@]12C[C@H](O)[C@H]3[C@@H](CCC4=CC(=O)CC[C@@]43C)[C@@H]1CC[C@]2(O)C(=O)CO
C      -1.00693752      1.92273774     -1.36488186
C      -1.56204979      0.58569748     -0.80615017
C      -1.70812651      0.65606410      0.72932481
C      -0.35374771      0.71240066      1.46961069
O       0.20640259      2.00897471      1.31953196
C       0.64824299     -0.39423758      1.01686777
C       0.75524218     -0.50864523     -0.53868784
C       1.59970095     -1.73276042     -0.92643950
C       2.98338329     -1.68772248     -0.29582413
C       2.91238624     -1.53149037      1.20374180
C       3.60552038     -2.36833754      1.99607078
C       3.68653939     -2.16400006      3.46081675
O       4.29323242     -2.97802722      4.15184853
C       3.09003463     -0.90455117      4.03175620
C       1.83485978     -0.52038777      3.26211611
C       2.06139606     -0.36402491      1.72853254
C       2.86143443      0.93276148      1.47012057
C      -0.65943508     -0.62701148     -1.12440961
C      -0.81968079     -0.80745316     -2.63128700
C      -2.28644356     -0.41568375     -2.91526724
C      -2.84123675      0.17444734     -1.59794655
O      -3.51430325     -0.90508026     -0.92080807
C      -3.89021995      1.29186391     -1.71748248
O      -4.63122949      1.54825385     -0.75711343
C      -4.04046507      2.05505508     -3.02494266
O      -4.89783402      3.17986900     -2.87549029
H       0.01062724      2.13955555     -1.03623400
H      -0.97332952      1.93872878     -2.45834011
H      -1.63351694      2.76384848     -1.04707045
H      -2.31629212      1.52864467      0.99808988
H      -2.24265426     -0.22791888      1.09807337
H      -0.56004964      0.58604320      2.53873826
H      -0.41508697      2.64868509      1.71092766
H       0.17513601     -1.33839682      1.33710811
H       1.25038313      0.37988758     -0.94362656
H       1.08885835     -2.65501735     -0.62043797
H       1.71272286     -1.78133798     -2.01559420
H       3.52836139     -2.59758431     -0.57530261
H       3.55113514     -0.84884282     -0.71605795
H       4.19489597     -3.19347568      1.61037133
H       2.82702010     -1.08809142      5.07949820
H       3.84434797     -0.11168159      4.00209153
H       1.43354406      0.40692860      3.68928164
H       1.07778366     -1.29689009      3.44344331
H       2.48689133      1.77038544      2.06601451
H       2.83688514      1.23291820      0.41827275
H       3.91746107      0.81449335      1.74211733
H      -1.10434595     -1.52505475     -0.66461736
H      -0.62136566     -1.83872004     -2.94307038
H      -0.13527593     -0.15630101     -3.18796222
H      -2.85498938     -1.30005361     -3.22599603
H      -2.29990718      0.28817686     -3.75171062
H      -4.07603289     -0.49639101     -0.23033955
H      -4.47365626      1.39101439     -3.77794846
H      -3.07132668      2.42510538     -3.36340063
H      -5.48488984      2.98262982     -2.11646919
