26
CCCCC(CC)CCl
C       3.50786941     -1.21567850     -0.11453714
C       2.50461237     -0.21046672      0.42835230
C       1.18695878     -0.25903770     -0.34715632
C       0.17911424      0.75098191      0.20962056
C      -1.12057895      0.86485944     -0.62119975
C      -1.87263941     -0.47682208     -0.77547069
C      -2.33922389     -1.11256603      0.52684968
C      -1.98801465      1.98690335     -0.02049008
Cl     -3.41616117      2.35660862     -1.01750678
H       3.73723380     -1.01245448     -1.16544921
H       4.44201439     -1.16333055      0.45338449
H       3.12072848     -2.23677413     -0.03824523
H       2.93617840      0.79540970      0.36807981
H       2.32058232     -0.42209060      1.48811102
H       1.37634611     -0.04502163     -1.40582153
H       0.77769096     -1.27334854     -0.28583684
H      -0.05757654      0.49718283      1.25010986
H       0.65898937      1.73835540      0.23821418
H      -0.82858053      1.18108149     -1.63270543
H      -2.74446373     -0.34023655     -1.42567609
H      -1.23447522     -1.19367813     -1.30515684
H      -3.03968733     -0.46627630      1.06291035
H      -1.49903630     -1.34133642      1.18834410
H      -2.85661207     -2.05419522      0.31490696
H      -1.41322553      2.91595943      0.05205733
H      -2.33804329      1.73597142      0.98512244
