28
NC(N)=NCCC[C@H](N)C(=O)O.[Cl-].[H+]
N       3.67438892      0.56468527     -0.49711372
C       3.31213064     -0.64361006      0.15273955
N       4.30477637     -1.65113608      0.28521054
N       2.12809563     -0.84862351      0.61797027
C       1.05051111      0.07951035      0.54751365
C      -0.28488398     -0.59425081      0.29227857
C      -1.33568652      0.50655324      0.24149213
C      -2.71472341     -0.08852854     -0.01279515
N      -2.70302006     -0.78692498     -1.26585737
C      -3.65164417      1.07537778     -0.11684043
O      -4.27329958      1.30395208     -1.18336812
O      -3.85740483      1.93176248      0.96252968
Cl      0.00000000      0.00000000      0.00000000
H       0.00000000      0.00000000      0.00000000
H       3.38221828      1.48643936     -0.10732995
H       4.23454709      0.52896434     -1.36708524
H       4.92454620     -1.68682712      1.12429532
H       4.45526678     -2.38589837     -0.43662696
H       1.26821856      0.82037112     -0.24963853
H       0.95254124      0.60256178      1.52374383
H      -0.29175815     -1.20323038     -0.61391633
H      -0.49744276     -1.22004085      1.17486417
H      -1.36477717      1.08714697      1.16924092
H      -1.03739206      1.17913919     -0.58676677
H      -2.97668962     -0.71631220      0.85365493
H      -1.93810011     -0.44048434     -1.88143421
H      -2.70049171     -1.80185788     -1.09836534
H      -4.05992670      2.90126115      0.87828561
