17
O=C(O)c1cc(Cl)ccc1[N+](=O)[O-]
O       2.24854154     -1.83914288      0.87657672
C       1.84999064     -0.85856854      0.28110482
O       2.66584117     -0.04306460     -0.40245281
C       0.43947377     -0.47532441      0.10298909
C      -0.48419268     -1.51132063     -0.09603596
C      -1.82781107     -1.20995351     -0.32431331
Cl     -2.95419953     -2.48370129     -0.58168166
C      -2.26752453      0.11550631     -0.35197297
C      -1.36009278      1.15447447     -0.13516493
C      -0.01157970      0.84773996      0.09928015
N       0.88619043      1.94275633      0.41350354
O       0.91668117      2.89044881     -0.38259436
O       1.50563639      1.87503073      1.48340177
H       3.57008021     -0.38511757     -0.22876348
H      -0.15221127     -2.54842323     -0.08413055
H      -3.31641405      0.34267553     -0.53226497
H      -1.70840973      2.18598454     -0.13748109
