28
COP(=O)(OC)O/C(=C\Cl)c1ccc(Cl)cc1Cl
C      -3.68947082      1.71237513      0.26518060
O      -3.05242889      0.52230098      0.68179190
P      -1.44727230      0.47257065      0.52553704
O      -0.73234932      1.60099143      1.20520623
O      -1.08320590     -0.99830349      1.07360897
C      -1.13777933     -1.18241404      2.47214438
O      -1.23456410      0.37176319     -1.06695813
C      -0.06288869      0.14703062     -1.76082086
C      -0.01515801      0.21548597     -3.09646112
Cl     -1.36731295      0.58934242     -4.08335843
C       1.15391810     -0.17450665     -0.99976330
C       1.88953960      0.88069745     -0.43723911
C       3.05226351      0.62631551      0.29400579
C       3.49270723     -0.68415482      0.46062472
Cl      4.92402992     -0.99467642      1.36264472
C       2.78431256     -1.74468035     -0.09754888
C       1.61956966     -1.49107347     -0.82724992
Cl      0.78186870     -2.84932346     -1.49499163
H      -4.76842128      1.59673051      0.39486388
H      -3.34895345      2.55433315      0.87374840
H      -3.47956487      1.90701104     -0.79000122
H      -0.37631167     -0.56844221      2.96047657
H      -0.93955035     -2.23362425      2.69566121
H      -2.12831516     -0.92037472      2.85353938
H       0.87613655      0.04392361     -3.68681479
H       1.55162410      1.91066587     -0.54869623
H       3.60255464      1.45460734      0.73424333
H       3.13502252     -2.76457099      0.03662650
