16
O=C1CCC(C(=O)O)N1
O      -2.43060949      0.89119963      1.15046171
C      -1.55062130      0.40825392      0.46099390
C      -1.19256394     -1.05272213      0.36493793
C      -0.16949983     -1.08968086     -0.76878775
C       0.42839848      0.30842577     -0.76875091
C       1.66859326      0.39949821      0.12561017
O       2.65919866     -0.31019667      0.04874868
O       1.62018735      1.40176121      1.02749302
N      -0.67352122      1.12708134     -0.32405949
H      -2.07277137     -1.65832609      0.13685567
H      -0.74729053     -1.36988659      1.31280506
H      -0.69342378     -1.26638515     -1.71687524
H       0.56167505     -1.89287897     -0.63714782
H       0.71905048      0.64000599     -1.77042113
H       2.47011949      1.34046387      1.51250237
H      -0.59692131      2.12338651     -0.15436617
