28
CC1=NN(c2cccc(S(=O)(=O)O)c2)C(=N)C1
C      -4.44127943      0.75566124      0.89615361
C      -3.07771714      0.19998837      0.67276740
N      -2.02735826      0.93241663      0.44775063
N      -0.97067698      0.04359976      0.29478319
C       0.32158612      0.57491554      0.03090101
C       0.52493153      1.96935276     -0.04239245
C       1.78466850      2.52586002     -0.29760177
C       2.88352500      1.69712421     -0.48941701
C       2.70408375      0.31683738     -0.42694483
S       4.08763246     -0.76506492     -0.65085311
O       5.29842485     -0.01693508     -0.39321822
O       3.88062035     -1.48539553     -1.88801143
O       3.94064125     -1.86171015      0.52380996
C       1.44413120     -0.24061552     -0.16791724
C      -1.33510103     -1.29003723      0.42555834
N      -0.66694914     -2.39117321      0.36048653
C      -2.82038339     -1.28202018      0.69356929
H      -4.42251123      1.84718422      0.84253688
H      -5.11950086      0.36861590      0.13137353
H      -4.79987507      0.44912170      1.88211478
H      -0.31395956      2.64769076      0.10427798
H       1.89947063      3.60616009     -0.34258957
H       3.86334289      2.12773127     -0.68275804
H       3.70660404     -2.71641491      0.10450721
H       1.35395425     -1.32131524     -0.13108227
H      -1.28302027     -3.19718575      0.51046793
H      -3.04716107     -1.70683004      1.67311589
H      -3.36812338     -1.78756211     -0.10380236
