25
CNC(=O)COC(=O)c1ccccc1
C       3.67816511     -0.68547805      1.67922413
N       2.98864015      0.03408678      0.64065651
C       2.80516057     -0.52616335     -0.60688564
O       3.30096354     -1.59634022     -0.94962556
C       1.92593514      0.30559407     -1.54326246
O       0.52862746      0.06803031     -1.36740925
C      -0.03060015      0.66842432     -0.28980808
O       0.56431604      1.36366135      0.52092644
C      -1.48560261      0.36902400     -0.21142848
C      -2.23212803      0.97545137      0.80842855
C      -3.60075677      0.72405344      0.92382413
C      -4.23001502     -0.13419251      0.02324399
C      -3.49415634     -0.74284318     -0.99300228
C      -2.12463978     -0.49387297     -1.11241025
H       4.58804360     -1.14314154      1.28172459
H       3.01678618     -1.46635582      2.06397274
H       3.93020737      0.01446347      2.47898759
H       2.31043093      0.74430693      0.92105091
H       2.18055638      0.03153988     -2.57294772
H       2.16058260      1.37232465     -1.44025149
H      -1.75183237      1.64693268      1.51758043
H      -4.17526755      1.19728499      1.71651587
H      -5.29585089     -0.33036043      0.11409479
H      -3.98683695     -1.41374888     -1.69292998
H      -1.57072863     -0.98268129     -1.91026948
