23
COc1cc(C(=O)O)c(C(=O)O)cc1O
C       3.44054743     -0.14118829     -0.74597633
O       2.70250882      0.80479728      0.02057399
C       1.34930742      0.60653347      0.10890593
C       0.62167883     -0.40323080     -0.52029943
C      -0.77298476     -0.48677056     -0.33926104
C      -1.53835873     -1.50422357     -1.09170092
O      -2.65253345     -1.37821679     -1.55971361
O      -0.83932938     -2.64542661     -1.23238173
C      -1.42817110      0.44003538      0.48333591
C      -2.86906299      0.37245389      0.76938832
O      -3.65017983      1.30252256      0.73821673
O      -3.21427007     -0.85203265      1.20189517
C      -0.70579736      1.46767466      1.09698114
C       0.66814697      1.53492612      0.90563692
O       1.35463895      2.54142391      1.52760660
H       3.13920918     -0.11483874     -1.79826901
H       4.49694878      0.13934257     -0.69462456
H       3.34233883     -1.14940575     -0.33014066
H       1.10717885     -1.12585168     -1.16877243
H      -1.45530361     -3.23938694     -1.71220352
H      -4.18220003     -0.78856115      1.34503696
H      -1.20323961      2.20006504      1.72803408
H       2.28892687      2.41935866      1.26773149
