22
c1ccc2nc3ccccc3nc2c1
C      -3.63838859     -0.05152239     -0.23058504
C      -3.39421694      1.31513554     -0.20708541
C      -2.07991239      1.77743379     -0.12466150
C      -1.00498206      0.89816490     -0.06527975
N       0.24720777      1.38369190      0.01353220
C       1.25341236      0.49237852      0.06866708
C       2.56588477      0.94267945      0.15090523
C       3.63838011      0.05152581      0.21005015
C       3.39421774     -1.31513157      0.18655129
C       2.07991682     -1.77743336      0.10412900
C       1.00497820     -0.89817052      0.04475263
N      -0.24721183     -1.38369589     -0.03406931
C      -1.25341753     -0.49238265     -0.08919890
C      -2.56589275     -0.94268055     -0.17143385
H      -4.65635603     -0.42742540     -0.29455061
H      -4.21871730      2.02209873     -0.25240775
H      -1.88588317      2.84715655     -0.10608455
H       2.75427673      2.01341430      0.16915702
H       4.65634808      0.42742897      0.27401032
H       4.21872217     -2.02208765      0.23188615
H       1.88590780     -2.84716020      0.08554806
H      -2.75427395     -2.01341827     -0.18968445
