16
C=CC(=O)OCCO
C       2.99365531      0.78536183      0.74991838
C       2.00238983     -0.10156577      0.90304597
C       0.61043809      0.25410246      0.56174630
O       0.24028096      1.33246362      0.12752862
O      -0.17261180     -0.82493206      0.79643866
C      -1.58697001     -0.64763362      0.57141728
C      -1.92597569     -0.57253698     -0.91890097
O      -1.89527516      0.76732004     -1.40486851
H       4.01638525      0.52425779      1.00076859
H       2.80920812      1.78810671      0.37281943
H       2.18858611     -1.09999958      1.27943029
H      -2.06394013     -1.53355559      1.00287440
H      -1.94084535      0.23111990      1.12280612
H      -2.94312504     -0.93897250     -1.08596766
H      -1.23222158     -1.16963088     -1.51844030
H      -1.09997891      1.20609462     -1.03286166
