50
CCCN(CCC)C(=O)Cc1c(-c2ccc(Cl)cc2)nc2ccc(Cl)cn12
C      -3.45250836      2.48644752     -1.54052255
C      -4.03853935      1.08413201     -1.47097120
C      -2.98249903     -0.02198736     -1.55427683
N      -2.07402524     -0.04113194     -0.40317518
C      -2.55068307     -0.71111281      0.81148402
C      -2.25572830     -2.21164886      0.78670953
C      -2.70469631     -2.88722076      2.07187394
C      -0.80989192      0.53575341     -0.54511910
O      -0.46586336      1.08231417     -1.59538599
C       0.11255742      0.50213461      0.67357424
C       1.52700360      0.83255676      0.31476287
C       2.63530670      0.02689211      0.10892133
C       2.66175529     -1.42185576      0.14029730
C       3.61150346     -2.07820331      0.93320510
C       3.64980442     -3.47439864      0.97979878
C       2.74477950     -4.21603362      0.22282107
Cl      2.78706541     -5.93496916      0.28210593
C       1.80867812     -3.57517646     -0.58703703
C       1.77077485     -2.17877646     -0.63256344
N       3.76971358      0.77429070     -0.08426778
C       3.36606746      2.02449988     -0.08915899
C       4.09066045      3.23568067     -0.27716234
C       3.44197809      4.41575154     -0.24315870
C       2.00761678      4.47902282     -0.01845036
Cl      1.23634527      6.01393532      0.00761771
C       1.31648086      3.34315634      0.16550345
N       1.99317442      2.12292649      0.13264851
H      -2.81891234      2.69807882     -0.67392715
H      -2.85602808      2.61908744     -2.44857011
H      -4.25661298      3.22921050     -1.55323903
H      -4.73859725      0.95819905     -2.30543225
H      -4.62312773      0.98691882     -0.54949917
H      -2.41216207      0.08746804     -2.48359827
H      -3.47860868     -0.99762616     -1.60974084
H      -3.62853192     -0.53817339      0.90579396
H      -2.08680063     -0.25146078      1.68939229
H      -2.76489624     -2.68066092     -0.06305461
H      -1.18439502     -2.38783473      0.64257989
H      -2.48999263     -3.95967819      2.03130832
H      -3.78116527     -2.76155130      2.22570484
H      -2.18175487     -2.46893136      2.93784015
H       0.09078728     -0.48980301      1.13279691
H      -0.26658270      1.21603452      1.41340870
H       4.32679004     -1.49943109      1.51474598
H       4.38946999     -3.97177148      1.60105177
H       1.11536702     -4.15282283     -1.19223318
H       1.05761337     -1.68852377     -1.29185018
H       5.15919796      3.17692328     -0.44994642
H       3.98473052      5.34439765     -0.39004870
H       0.24738149      3.32497165      0.32644280
