50
CC(=O)N[C@H](C)c1ccc(Nc2ncc3cc(-c4ccncc4)ccc3n2)cc1
C      -7.68076651      1.04061031      2.21701947
C      -7.43888058      0.20663704      0.98773804
O      -8.36017983     -0.29214556      0.34995703
N      -6.11396481      0.04973189      0.66494834
C      -5.68335176     -0.74449165     -0.47353407
C      -5.76283862     -2.24346783     -0.16772173
C      -4.29597684     -0.29794349     -0.89827406
C      -3.14308819     -0.67012637     -0.19542465
C      -1.87789168     -0.21739861     -0.59485396
C      -1.72059563      0.62197337     -1.69972355
N      -0.48864607      1.11459664     -2.13963277
C       0.82662358      0.96503044     -1.71063084
N       1.73736817      1.59426443     -2.47055004
C       3.02670724      1.48322042     -2.09891038
C       3.45205433      0.76882747     -0.99373593
C       4.80370070      0.65232540     -0.60324409
C       5.16137867     -0.09351120      0.52810681
C       6.56590899     -0.22360117      0.94260428
C       7.15215586     -1.48113370      1.12848745
C       8.48101630     -1.55389145      1.51686522
N       9.25904610     -0.47415992      1.73440725
C       8.68240137      0.73149454      1.55524039
C       7.36344605      0.90522614      1.16490127
C       4.13149189     -0.71171275      1.24882844
C       2.79388542     -0.58368901      0.84847372
C       2.43318713      0.15253744     -0.27097612
N       1.14398085      0.24951276     -0.62108516
C      -2.88102948      1.00545044     -2.38866179
C      -4.14807485      0.55779614     -1.99612061
H      -8.01089241      0.38971530      3.03084451
H      -6.77779538      1.57145414      2.53104296
H      -8.45483414      1.78177100      1.99924535
H      -5.40045591      0.45497326      1.25580173
H      -6.38445730     -0.55077241     -1.29611488
H      -5.38297206     -2.83676905     -1.00664780
H      -5.18998616     -2.51145472      0.72676956
H      -6.79872401     -2.54872366      0.01626026
H      -3.20686624     -1.31551962      0.67737398
H      -1.01878943     -0.54134673     -0.01542423
H      -0.49261031      1.67448620     -2.97942404
H       3.72985274      2.00565179     -2.74154828
H       5.57705045      1.13713229     -1.19690927
H       6.59145155     -2.39562014      0.96314358
H       8.96832794     -2.51339482      1.66540745
H       9.32760859      1.58541834      1.74143313
H       6.96651103      1.90885024      1.05145976
H       4.35592656     -1.29275516      2.14180480
H       2.01469432     -1.07178326      1.42992040
H      -2.81182067      1.66819501     -3.24831434
H      -5.02028698      0.88852983     -2.55695215
