58
Cn1c(-c2ccccc2)c(C=CC2=[N+](C)c3ccccc3C2(C)C)c2ccccc21.[Cl-]
C      -5.16156895     -0.49701044      0.45895048
N      -3.85212446     -1.08164842      0.23695031
C      -2.65510901     -0.38350881      0.26285957
C      -2.58215854      1.05603462      0.52072221
C      -2.95606847      1.97225938     -0.46984251
C      -2.86708025      3.34386698     -0.22748390
C      -2.40692019      3.80622754      1.00489411
C      -2.03691454      2.89921233      1.99714254
C      -2.12352962      1.52710517      1.75627774
C      -1.64521241     -1.31544553      0.05630567
C      -0.23452308     -1.06550035      0.02199177
C       0.34377186      0.03452889     -0.48398777
C       1.80422094      0.22117897     -0.44426525
N       2.70898064     -0.56725635     -0.94389065
C       2.57610311     -1.79761388     -1.73090991
C       4.04550409     -0.01614451     -0.66992512
C       5.28152956     -0.53975597     -1.00449214
C       6.41167436      0.18975532     -0.62614569
C       6.28205971      1.40540597      0.06794507
C       5.02277812      1.91267738      0.39873072
C       3.90739668      1.18379867      0.02065012
C       2.44413912      1.45919532      0.23580498
C       2.10178388      1.48939333      1.72791462
C       2.01263888      2.75319960     -0.45865338
C      -2.24860357     -2.60041746     -0.10744641
C      -1.74815825     -3.90115914     -0.34418280
C      -2.63454872     -4.97329404     -0.48511189
C      -4.00601792     -4.76898665     -0.39644035
C      -4.52751098     -3.49473098     -0.16027462
C      -3.63043263     -2.42233881     -0.01438658
Cl      0.00000000      0.00000000      0.00000000
H      -5.85024254     -1.25883498      0.83026412
H      -5.51692478     -0.09408426     -0.49260691
H      -5.08741059      0.29190298      1.21107463
H      -3.31985115      1.62309773     -1.43360392
H      -3.16763788      4.05303028     -0.99563810
H      -2.35118486      4.87540865      1.19733343
H      -1.69503594      3.26150497      2.96355607
H      -1.84568949      0.82734241      2.54145528
H       0.38185851     -1.86098596      0.43633955
H      -0.23909171      0.85857897     -0.88225129
H       3.15422194     -1.69462076     -2.65345051
H       2.94676459     -2.63471151     -1.13335045
H       1.52939467     -1.96491322     -1.99392512
H       5.40390153     -1.47694078     -1.53679289
H       7.40747756     -0.18178611     -0.86753568
H       7.17784158      1.95748764      0.35346142
H       4.93694014      2.85278959      0.93874666
H       2.63891379      2.29076115      2.24760414
H       2.36310602      0.54403606      2.21908453
H       1.03059597      1.65046808      1.88700025
H       2.55358653      3.62027463     -0.06266127
H       2.19949422      2.71047174     -1.53827775
H       0.94196909      2.94175406     -0.32203542
H      -0.68115501     -4.08122350     -0.42182701
H      -2.25036558     -5.97396919     -0.66734067
H      -4.68536186     -5.61144987     -0.51005896
H      -5.60221411     -3.35441692     -0.09357916
