43
Cc1nn(C)c(OCC(=O)c2ccccc2)c1C(=O)c1ccc(Cl)cc1Cl
C      -2.72833871     -4.22243533      1.35634258
C      -1.85496637     -3.50187246      0.39419390
N      -1.14897940     -4.19010069     -0.51217929
N      -0.53884995     -3.23781607     -1.23737818
C       0.25153358     -3.62153765     -2.38203893
C      -0.72473854     -1.97279978     -0.74455237
O      -0.12263253     -0.91633024     -1.29275714
C       1.04128183     -0.47803210     -0.59055757
C       1.34295384      0.97149329     -0.95347353
O       0.79426229      1.55189477     -1.88902417
C       2.32639728      1.71937947     -0.11537266
C       2.39020044      3.11340890     -0.25216664
C       3.27884184      3.85936927      0.52332044
C       4.11241349      3.21779935      1.43670680
C       4.06094687      1.83122514      1.57384037
C       3.17156377      1.07985417      0.80026774
C      -1.64973456     -2.09516669      0.28046856
C      -2.26195305     -1.05151042      1.08840309
O      -2.83602031     -1.28702514      2.14922369
C      -2.14218211      0.36335732      0.68371333
C      -1.45210391      1.21957019      1.55688330
C      -1.28073088      2.56337363      1.22379650
C      -1.80954894      3.05096460      0.02914763
Cl     -1.58585022      4.70648566     -0.38198506
C      -2.52657310      2.21403478     -0.82586509
C      -2.70464129      0.86732200     -0.49499369
Cl     -3.67036367     -0.09950883     -1.55079951
H      -3.75648701     -3.85225935      1.29257688
H      -2.74706678     -5.29839116      1.15337492
H      -2.36757887     -4.07938610      2.37976772
H       0.35658079     -2.76973278     -3.05794536
H       1.23137938     -3.94657204     -2.02420467
H      -0.25555719     -4.43783428     -2.90320413
H       0.88451742     -0.54779027      0.49211180
H       1.88970906     -1.10061888     -0.89456883
H       1.74428359      3.62789316     -0.96257679
H       3.32051796      4.94035270      0.41122349
H       4.80697935      3.79932748      2.03877281
H       4.71948628      1.33479650      2.28340918
H       3.17068225      0.00166065      0.92879203
H      -1.04822697      0.83926572      2.49339514
H      -0.73678327      3.22362095      1.89529140
H      -2.94462366      2.61027055     -1.74787718
