56
CCCCCCCCCCCCCCCCCC
C      -8.13802323     -0.20239068     -0.00496428
C      -7.04162252     -1.23092431      0.22421390
C      -6.32824266     -1.65876529     -1.06023551
C      -5.62134920     -0.53884694     -1.83092376
C      -4.58539281      0.26766150     -1.04000368
C      -3.42272802     -0.58199989     -0.52055253
C      -2.38729253      0.22246239      0.27431484
C      -1.58284547      1.19901754     -0.58782628
C      -0.54790503      2.00139303      0.20825742
C       0.59215201      1.14499730      0.76611504
C       1.65855155      2.01582275      1.43539124
C       2.76430918      1.20810925      2.12204062
C       3.55566702      0.25141523      1.22321981
C       4.28669846      0.95674847      0.07826302
C       5.08208196     -0.00046224     -0.81572212
C       6.27752736     -0.64440802     -0.10997269
C       7.10197898     -1.49145459     -1.08057800
C       8.28988489     -2.13770123     -0.38561490
H      -8.86502125     -0.56054271     -0.74067218
H      -7.72871848      0.74894940     -0.35717874
H      -8.67152376     -0.00741632      0.93090166
H      -7.49049745     -2.12128969      0.68110306
H      -6.32037967     -0.84225770      0.95127427
H      -7.05988234     -2.12663176     -1.73133451
H      -5.60490901     -2.44498611     -0.81406992
H      -5.13029877     -0.98178534     -2.70676114
H      -6.37209151      0.15494076     -2.22807775
H      -4.20116555      1.04763511     -1.70682928
H      -5.06937734      0.78685051     -0.20522881
H      -3.81100360     -1.36343582      0.14245984
H      -2.93043120     -1.09144069     -1.35760737
H      -2.88667289      0.76565625      1.08557768
H      -1.70538581     -0.49436571      0.74533662
H      -1.08209392      0.65413404     -1.39713125
H      -2.26187091      1.91632702     -1.06164485
H      -0.12614350      2.76589927     -0.45629685
H      -1.04657131      2.53498588      1.02653807
H       0.20252247      0.43066062      1.49936873
H       1.03865928      0.56764939     -0.05097068
H       1.18002750      2.64688235      2.19512408
H       2.09503754      2.70144171      0.70019606
H       3.46309087      1.91014705      2.59400882
H       2.31889941      0.62434056      2.93747055
H       4.28260605     -0.26696132      1.85875329
H       2.89197223     -0.52232331      0.82106211
H       4.95621596      1.72553557      0.48229001
H       3.55829803      1.47210050     -0.55790511
H       4.41586387     -0.78027832     -1.20438626
H       5.44373620      0.56619217     -1.68293081
H       6.91233551      0.13661164      0.32556212
H       5.93212915     -1.27961781      0.71305769
H       7.46485351     -0.86686383     -1.90514265
H       6.47202956     -2.27424204     -1.51892703
H       7.96008710     -2.79585286      0.42457232
H       8.86517470     -2.73764076     -1.09767476
H       8.95704939     -1.37968197      0.03703657
