32
CCOC(=O)C1=C(C)C=CCC1(C)C
C       3.48041573     -1.55601520      1.62681903
C       3.05596101     -0.29476570      0.90041597
O       1.63512856     -0.33396764      0.73324935
C       1.12834000      0.73735042      0.07714419
O       1.75433089      1.69039229     -0.35792633
C      -0.33846970      0.58673718     -0.03122756
C      -1.13268789      1.39696851      0.70560235
C      -0.66358229      2.43375109      1.69188440
C      -2.57929931      1.27846669      0.59102683
C      -3.14728404      0.62862881     -0.43379336
C      -2.31458475     -0.03074644     -1.49553295
C      -0.89488910     -0.45474091     -1.00442374
C      -0.00666377     -0.63103488     -2.25313948
C      -0.99961106     -1.81719014     -0.28296795
H       3.18835832     -2.44496535      1.05790557
H       2.98522985     -1.62485076      2.60106855
H       4.56321433     -1.57340945      1.77867523
H       3.54374921     -0.25098828     -0.07990517
H       3.33456781      0.58492539      1.49139727
H      -0.96042590      3.43446916      1.35932083
H       0.42055910      2.44145310      1.83249191
H      -1.10791638      2.25249693      2.67721671
H      -3.20040562      1.75880280      1.34291300
H      -4.22837722      0.58695034     -0.52549412
H      -2.85391785     -0.90801750     -1.87474250
H      -2.23924231      0.67106975     -2.33701650
H       0.97813731     -1.03970480     -1.99999120
H      -0.46868458     -1.32208231     -2.96796468
H       0.14981523      0.32384800     -2.76834171
H      -0.01578372     -2.19678336      0.01338596
H      -1.61519089     -1.75332147      0.62151981
H      -1.45079097     -2.57372629     -0.93569136
