14
CC(C)OC(=O)Cl
C      -0.47409807      1.05557360     -0.84707347
C      -0.29391631     -0.21003974     -0.01635807
C      -1.20610116     -0.18626672      1.20441168
O       1.05936161     -0.28121193      0.46783423
C       1.98794434     -0.81342465     -0.38480465
O       1.70382816     -1.21627204     -1.50786255
Cl      3.58515035     -0.84616129      0.30530607
H      -0.20105751      1.94532578     -0.26893426
H      -1.50870817      1.16177315     -1.18747188
H       0.17739641      1.04215314     -1.72677944
H      -0.53777682     -1.09812663     -0.61187109
H      -1.05695723     -1.08811651      1.80810471
H      -2.25955197     -0.13211991      0.91338775
H      -0.97551363      0.66691375      1.85211095
