49
O=C(NCc1cccc(Br)c1)C1c2ccccc2C(=O)N1CCc1ccccn1
O       2.31847109     -2.69239724     -0.28588096
C       1.28386255     -2.02573156     -0.32489109
N       1.28836968     -0.64757395     -0.32089896
C       2.52737092      0.08729412     -0.41257717
C       2.41422388      1.48264310      0.14722109
C       1.72212961      1.73512862      1.34247515
C       1.64948266      3.02766273      1.86625173
C       2.27931196      4.08353166      1.20971047
C       2.98584876      3.83852300      0.03470527
Br      3.83804514      5.26842931     -0.86139024
C       3.06382657      2.54885928     -0.49308598
C      -0.10420889     -2.68806130     -0.22067999
C      -0.47691824     -2.96798727      1.20744078
C       0.21076251     -3.66512496      2.18802004
C      -0.38000271     -3.78934913      3.45055781
C      -1.64293304     -3.22943725      3.71638904
C      -2.33389212     -2.53524738      2.72231175
C      -1.72437853     -2.41970345      1.48681231
C      -2.22738002     -1.77581214      0.27107878
O      -3.34444384     -1.30678628      0.16527497
N      -1.22318461     -1.85412504     -0.68851651
C      -1.47531680     -1.71563145     -2.12076292
C      -2.30148565     -0.49976140     -2.54724275
C      -1.65404124      0.80633744     -2.17362104
C      -2.23311261      1.63404494     -1.21496054
C      -1.62759110      2.85196938     -0.92327049
C      -0.47104612      3.21475791     -1.59969289
C       0.04666531      2.32992508     -2.52922917
N      -0.50653860      1.13092094     -2.81899642
H       0.43481090     -0.17756897     -0.61210226
H       2.79348045      0.11653745     -1.47527619
H       3.32244019     -0.44767968      0.11928805
H       1.23344573      0.92040081      1.87461470
H       1.10387387      3.20769734      2.78897910
H       2.21786140      5.08627479      1.62333731
H       3.62689224      2.37078794     -1.40660571
H      -0.10981017     -3.61773502     -0.80173229
H       1.18693389     -4.10116547      1.99025654
H       0.14336239     -4.32853575      4.23806709
H      -2.08465245     -3.34263813      4.70409879
H      -3.31202826     -2.10325970      2.90467942
H      -1.99171930     -2.62776311     -2.44246709
H      -0.50260379     -1.69141384     -2.62642523
H      -3.32057887     -0.55415460     -2.15074462
H      -2.41224920     -0.51800092     -3.63910027
H      -3.14402079      1.33831843     -0.70191366
H      -2.06000522      3.51416533     -0.17865788
H       0.02056755      4.16009744     -1.40084461
H       0.95210292      2.56833796     -3.08000326
