21
O=C1CNC(=S)N1c1ccccc1
O      -1.51297821      1.92017178      0.90461270
C      -1.75549959      0.81897879      0.42328462
C      -3.17596621      0.30791957      0.26666878
N      -2.94707922     -0.99378322     -0.27456881
C      -1.60380288     -1.23428069     -0.50128907
S      -1.17496925     -2.62565426     -1.30447696
N      -0.87517097     -0.15315778     -0.03425499
C       0.54428300      0.01007388     -0.01206222
C       1.12238013      1.28740661     -0.10846867
C       2.51050393      1.46654054     -0.08546258
C       3.35332859      0.36961077      0.04446204
C       2.80635732     -0.90288883      0.15845536
C       1.41702255     -1.07822620      0.13436614
H      -3.73604709      0.91211104     -0.44912606
H      -3.68003785      0.22223112      1.23054393
H      -3.66533637     -1.62375155     -0.61375168
H       0.50939025      2.17668065     -0.23372885
H       2.92714991      2.46704324     -0.17146841
H       4.43115530      0.50641905      0.06429099
H       3.45724605     -1.76571132      0.27771406
H       1.04807058     -2.08773321      0.28425967
