70
CCCCCCCC/C=C/CCCCCCCCN(CCO)CCO
C      10.75079222      0.47510594     -0.56630212
C       9.84948781     -0.71200127     -0.86560360
C       8.47802150     -0.31731172     -1.41949689
C       7.62731036      0.58748924     -0.52120932
C       7.30749054     -0.03435949      0.83867099
C       6.42208273      0.85262203      1.72005831
C       5.02923288      1.17154512      1.16801181
C       4.19608854     -0.07473440      0.86593508
C       2.78739153      0.28829591      0.48628023
C       1.70498304     -0.10919016      1.17602525
C       0.25913596      0.17963305      0.86637328
C      -0.02493689      0.97482989     -0.41380822
C      -1.51731477      1.05078662     -0.75624390
C      -2.34744472      1.81326503      0.27838306
C      -3.80517304      2.01618648     -0.14919676
C      -4.60506735      0.73614813     -0.41664147
C      -4.74553366     -0.16561364      0.81434807
C      -5.48560237     -1.48052408      0.51528230
N      -6.84734857     -1.31151603     -0.03827294
C      -7.79322586     -0.86462449      1.01730973
C      -9.10752122     -0.33582095      0.41869907
O      -8.83299362      0.71762161     -0.50050905
C      -7.30557332     -2.59544242     -0.64067541
C      -7.44160654     -2.44506410     -2.16148511
O      -6.21401938     -1.99260414     -2.72598678
H      10.35847866      1.07751968      0.25794630
H      10.86044273      1.11665162     -1.44634338
H      11.74674728      0.12550702     -0.27484442
H       9.73766556     -1.32149844      0.03699566
H      10.34701206     -1.34924611     -1.60653034
H       7.91430302     -1.23440095     -1.63275540
H       8.62031713      0.18690668     -2.38453801
H       6.69755964      0.79858973     -1.05909680
H       8.12539531      1.55152166     -0.37819684
H       6.84096895     -1.01564408      0.70275274
H       8.23977451     -0.21155739      1.38604381
H       6.94091568      1.79908846      1.91116553
H       6.30830231      0.36152271      2.69446838
H       4.50563598      1.78627420      1.91144655
H       5.11536075      1.79123290      0.26775625
H       4.20512369     -0.74269395      1.73525438
H       4.63558544     -0.62951367      0.02919589
H       2.67937402      0.89661486     -0.40825969
H       1.85497833     -0.71705048      2.06811893
H      -0.15616054      0.71559919      1.72836872
H      -0.26505386     -0.78379043      0.81169398
H       0.48305760      0.49850390     -1.26186134
H       0.38251347      1.98935509     -0.32547679
H      -1.61866514      1.54185253     -1.73189513
H      -1.90285025      0.03161279     -0.87320387
H      -1.90066941      2.80230940      0.44013891
H      -2.32039843      1.30206678      1.24519595
H      -3.82294101      2.63045088     -1.05877128
H      -4.31543061      2.59957395      0.62824127
H      -4.14806573      0.17371483     -1.23835922
H      -5.60240167      1.03409107     -0.76146171
H      -5.23893209      0.38664607      1.62123593
H      -3.75127870     -0.43502897      1.18778565
H      -4.86171255     -2.02391935     -0.20782931
H      -5.51561533     -2.09566894      1.42396864
H      -7.99656737     -1.66551690      1.73827737
H      -7.35346335     -0.02972161      1.57258176
H      -9.66431521     -1.11563390     -0.10861883
H      -9.75005182      0.06121768      1.20997446
H      -8.00803852      0.45776316     -0.95133001
H      -8.26671854     -2.93157014     -0.23097499
H      -6.59480114     -3.40529797     -0.42988309
H      -8.22432122     -1.72431984     -2.41994232
H      -7.69620983     -3.40633443     -2.61639508
H      -5.96350562     -1.21672835     -2.19198486
