31
CC(C)c1cccc(C(C)C)c1O
C      -3.60879315      0.81633561      0.49704453
C      -2.49063777     -0.19932873      0.76600059
C      -2.99593376     -1.62462563      0.53262774
C      -1.22347468      0.05147817     -0.04144253
C      -1.30865052      0.42442898     -1.39335820
C      -0.16265420      0.68951064     -2.14124153
C       1.09504818      0.58540447     -1.55344868
C       1.23174620      0.19796345     -0.21154411
C       2.61425485      0.07101775      0.41451557
C       3.41059590     -1.06748485     -0.22930932
C       3.39476848      1.38788747      0.34638047
C       0.06300271     -0.08740118      0.51977355
O       0.22385271     -0.52029345      1.81017913
H      -3.24261444      1.84275284      0.60930000
H      -4.03175982      0.71350041     -0.50760649
H      -4.42965125      0.67464306      1.20903866
H      -2.25766579     -0.08904674      1.83203400
H      -2.22699132     -2.36322738      0.78478914
H      -3.87398572     -1.83131466      1.15388903
H      -3.27902984     -1.78481197     -0.51386967
H      -2.27271848      0.51509531     -1.88727277
H      -0.25078946      0.98192405     -3.18447120
H       1.97287362      0.80091539     -2.15790349
H       2.51710782     -0.17176212      1.47910227
H       3.61616862     -0.87640495     -1.28820800
H       2.86376545     -2.01455336     -0.16087902
H       4.37281535     -1.19885977      0.27745806
H       4.34430538      1.29878060      0.88549142
H       2.82488831      2.20406795      0.80423881
H       3.62716223      1.67799831     -0.68378916
H      -0.51700562     -1.10458969      2.03248118
