42
CCN(CC)C(=O)CCC(=O)OCn1ncc2c(=O)[nH]cnc21
C      -5.49653612      0.51602611     -1.46012856
C      -4.80847026     -0.14318636     -0.27473196
N      -3.63457177      0.61539111      0.16298945
C      -3.86258304      1.69757140      1.12132624
C      -3.74294101      1.21191652      2.55753439
C      -2.32758773      0.36840520     -0.24691665
O      -1.37672324      1.03704253      0.16208563
C      -2.11163884     -0.76483414     -1.23884650
C      -0.64455505     -0.89149448     -1.64037322
C       0.18776244     -1.44953764     -0.51097207
O      -0.24024152     -2.15167365      0.39534134
O       1.49011439     -1.11079577     -0.68309449
C       2.33366527     -1.62571540      0.34813370
N       3.71141947     -1.31402651      0.00105594
N       4.38849787     -2.08740319     -0.89565486
C       5.59235764     -1.50431247     -0.97316543
C       5.69134260     -0.39360982     -0.13035286
C       6.71118352      0.56471991      0.17703121
O       7.83179016      0.57261160     -0.31700873
N       6.29392249      1.49804879      1.10864496
C       5.03386141      1.49312233      1.67849330
N       4.09695881      0.63238159      1.41863257
C       4.47404905     -0.29171929      0.49925389
H      -4.81760508      0.60670831     -2.31368149
H      -5.84535030      1.52205039     -1.20603026
H      -6.36282333     -0.07505536     -1.77274789
H      -5.50431673     -0.22581242      0.56771608
H      -4.52334492     -1.16243779     -0.54559003
H      -3.13330447      2.49734049      0.94993652
H      -4.85487646      2.12725722      0.94633982
H      -2.74727005      0.80092654      2.75380890
H      -4.47528843      0.42661177      2.77067521
H      -3.91535787      2.03832094      3.25378592
H      -2.70018272     -0.55237789     -2.13726986
H      -2.46221655     -1.70303893     -0.79703300
H      -0.24512411      0.08389202     -1.94072668
H      -0.55024680     -1.57957110     -2.48748244
H       2.25808876     -2.71694835      0.42109376
H       2.10123000     -1.15759091      1.31032579
H       6.33949903     -1.91866847     -1.63810745
H       6.97083750      2.20104397      1.36290017
H       4.87657598      2.30842120      2.40267803
