15
O=C([O-])C(O)C(O)C(=O)[O-].[Ba+2]
O      -2.26682961      0.83769631      0.93763385
C      -1.84227652      0.11304106      0.02057375
O      -2.62652318     -0.11916004     -1.08621564
C      -0.51056507     -0.49851644      0.10651263
O      -0.36655009     -1.55387197     -0.79910541
C       0.58828133      0.53357088     -0.13049687
O       0.45392663      1.58786723      0.76504297
C       1.89651775     -0.11368939      0.10831771
O       2.50627426      0.15553197      1.17036286
O       2.46183696     -1.01171971     -0.81821733
Ba      0.00000000      0.00000000      0.00000000
H      -0.40067204     -0.91415513      1.12951214
H      -0.82766636     -2.36087912     -0.51570941
H       0.58384438      0.88778731     -1.18541236
H       0.35040156      2.45649702      0.29720113
