35
CC(C)N(c1ccccc1)c1ccc(N)cc1
C      -0.76998685      2.65375440      0.20468447
C      -0.40586193      1.73943923     -0.96932198
C      -1.44159110      1.87897405     -2.09180340
N      -0.18920067      0.32643345     -0.53918876
C      -1.36397775     -0.36603881     -0.14369463
C      -1.74702672     -0.42811740      1.20479428
C      -2.89173123     -1.12809420      1.59196259
C      -3.66176564     -1.78673405      0.63565495
C      -3.28325572     -1.75269669     -0.70495616
C      -2.13810593     -1.05163894     -1.08995906
C       1.10228429     -0.06773984     -0.09426294
C       2.17966998      0.81252645      0.08314769
C       3.43915609      0.36290929      0.51263032
C       3.68156131     -0.98952184      0.73587909
N       4.90047405     -1.41337648      1.27442327
C       2.61321887     -1.87234732      0.62288098
C       1.35669819     -1.42279305      0.19387224
H      -0.05802016      2.55669050      1.03014508
H      -1.76779206      2.43211759      0.59745171
H      -0.77040597      3.70171193     -0.11451869
H       0.51755307      2.11846000     -1.42299562
H      -1.44552909      2.90472545     -2.47779993
H      -1.20622520      1.21257897     -2.92823942
H      -2.45845035      1.66246247     -1.74909708
H      -1.14542579      0.07211329      1.95965244
H      -3.17631704     -1.16246849      2.64001222
H      -4.55097752     -2.33436864      0.93639437
H      -3.87332342     -2.27743547     -1.45132778
H      -1.83760786     -1.05223578     -2.13419015
H       2.07558725      1.88061802     -0.07142700
H       4.22917410      1.09204004      0.67142842
H       5.68533792     -0.81916706      1.02783112
H       5.09616411     -2.39652854      1.11424720
H       2.74020830     -2.92474543      0.86005944
H       0.56549048     -2.16150710      0.08563072
