59
CC(=O)OCC(=O)[C@@]1(O)CC[C@H]2[C@@H]3CCC4=CC(=O)CC[C@]4(C)[C@H]3C(=O)C[C@@]21C
C       7.76965440     -1.75620715      0.26799577
C       6.72288890     -0.86165584     -0.32051793
O       6.77410310     -0.37049189     -1.43911110
O       5.71606734     -0.66395011      0.56921629
C       4.68268968      0.19453062      0.08635708
C       3.58813426      0.35345331      1.13137698
O       3.69056467     -0.11141299      2.27431370
C       2.30886061      1.12921659      0.76530647
O       1.99546913      1.92127300      1.92828143
C       2.39528734      2.10987176     -0.42496477
C       0.99275961      2.13683395     -1.06856216
C       0.11773992      1.30822090     -0.13170981
C      -1.18847574      0.71897587     -0.68321941
C      -2.10421551      1.81892756     -1.23568329
C      -3.41083054      1.23625485     -1.75773660
C      -4.11855245      0.40513716     -0.71311214
C      -5.42288471      0.62566313     -0.46851909
C      -6.20325403     -0.23530561      0.44911142
O      -7.38127179      0.03157091      0.67062064
C      -5.53150736     -1.45981151      1.00791532
C      -4.05464970     -1.18565802      1.25420344
C      -3.28702838     -0.68212171     -0.00608040
C      -3.10281790     -1.84808877     -1.00376335
C      -1.91818324     -0.05967180      0.45290462
C      -0.93695397     -1.03763797      1.13313070
O      -1.20011945     -2.21731678      1.35695492
C       0.39394181     -0.45791974      1.59571178
C       1.08855221      0.23064498      0.41489310
C       1.47350527     -0.84128246     -0.63860573
H       8.50474478     -2.00801455     -0.50151403
H       7.31172297     -2.68446955      0.62091634
H       8.27582669     -1.24160482      1.08979468
H       4.24692595     -0.24221043     -0.81673706
H       5.10232872      1.18588639     -0.11645946
H       2.24301332      1.38221791      2.70928248
H       3.11602090      1.80589475     -1.18896261
H       2.67483042      3.11654119     -0.09338019
H       1.02783098      1.70216716     -2.07386671
H       0.62438253      3.16322135     -1.16679890
H      -0.16961435      1.97901066      0.69424871
H      -0.94879307      0.03789609     -1.50770254
H      -1.60554690      2.35225667     -2.05392856
H      -2.31617970      2.56143295     -0.45463289
H      -3.20848989      0.60909412     -2.63444822
H      -4.04619598      2.05843425     -2.10834649
H      -5.99326636      1.40239790     -0.96677014
H      -6.01285971     -1.71700560      1.95776226
H      -5.68067411     -2.29231030      0.31367790
H      -3.97834543     -0.43336797      2.05167420
H      -3.60338221     -2.10066575      1.65156945
H      -2.45429023     -1.57838320     -1.84327738
H      -4.06128717     -2.16283046     -1.43400410
H      -2.66823374     -2.73198636     -0.52777150
H      -2.15370577      0.67297261      1.24224098
H       1.01626264     -1.26480256      1.99869176
H       0.17644444      0.23180721      2.41864531
H       2.18081762     -1.56358007     -0.21559140
H       0.61216916     -1.42206045     -0.98209267
H       1.93807001     -0.40764372     -1.52892709
