42
Cc1c(NC(=O)Nc2ccccc2)c(=O)n(-c2ccccc2)n1C
C      -0.21461399     -1.88769565     -1.59210765
C      -0.87492556     -0.93993390     -0.64307046
C      -0.31965464      0.07309509      0.04153261
N       0.95453385      0.55301766      0.18570499
C       2.13774524     -0.14351156      0.03397025
O       2.20259017     -1.35273035     -0.14081220
N       3.21520874      0.72125428      0.12281169
C       4.58679005      0.39616459      0.10952053
C       5.49652624      1.46138697      0.06778764
C       6.87372061      1.22421802      0.05989302
C       7.35484364     -0.08134360      0.09755065
C       6.45870696     -1.14635649      0.14529650
C       5.08015757     -0.90891924      0.15325067
C      -1.45289148      0.77818248      0.71775406
O      -1.27983491      1.79903543      1.36964815
N      -2.61567846      0.08091399      0.38159001
C      -3.93002312      0.61547973      0.38993825
C      -4.91272188      0.14666533     -0.49574238
C      -6.20805730      0.67400340     -0.48340688
C      -6.54142555      1.68212475      0.41569499
C      -5.57912155      2.16501136      1.29739090
C      -4.28354160      1.63715603      1.28213969
N      -2.26679503     -1.03285805     -0.43987881
C      -2.78217031     -2.31865783      0.06868164
H       0.65722840     -1.43969702     -2.07696312
H      -0.90357837     -2.16150150     -2.39919305
H       0.08547892     -2.80533641     -1.07746866
H       1.00516989      1.38768950      0.76024038
H       2.99056650      1.70318721      0.06233621
H       5.14852034      2.49044074      0.03860223
H       7.56923085      2.05863341      0.02457241
H       8.42506956     -0.27018836      0.09146682
H       6.82826021     -2.16823939      0.17802399
H       4.41821717     -1.76792361      0.19971850
H      -4.67631509     -0.61473976     -1.23391537
H      -6.95121036      0.30168973     -1.18377748
H      -7.54670872      2.09496163      0.42579161
H      -5.83180978      2.95410469      2.00120036
H      -3.56534102      2.03139716      1.99647035
H      -3.86250119     -2.28884079      0.23578158
H      -2.29925792     -2.58449938      1.01624802
H      -2.59038708     -3.11684028     -0.65622059
