46
CCOc1nc(NC)nc(NC(=O)NS(=O)(=O)c2ccccc2C(=O)OC)n1
C      -6.38078919      0.75360664      0.06722806
C      -5.77206199     -0.15203331     -0.99043241
O      -4.97038195     -1.16850595     -0.39047523
C      -3.65055414     -0.82876084     -0.18642234
N      -3.24346701      0.41506711     -0.41068581
C      -1.95849315      0.63005586     -0.18456381
N      -1.38331629      1.85662128     -0.48697641
C      -2.13710884      2.99294361     -0.00737509
N      -1.12976893     -0.28351373      0.29520317
C      -1.63969572     -1.49244833      0.48457831
N      -0.81673513     -2.51285453      0.92562016
C       0.48238982     -2.44276411      1.32656151
O       1.10184161     -3.48130632      1.52355991
N       1.04859861     -1.18840706      1.51298688
S       2.59747529     -0.87444409      1.99530160
O       2.99405179     -1.81960944      3.01627062
O       2.71370441      0.54483415      2.25799535
C       3.51754821     -1.22271334      0.52172579
C       4.26862002     -2.40474979      0.46081128
C       5.05448976     -2.67390985     -0.66005718
C       5.09990299     -1.76519069     -1.71610842
C       4.35383110     -0.58605585     -1.65757100
C       3.55751277     -0.30518720     -0.53529357
C       2.73601823      0.92696748     -0.54573118
O       1.54641429      0.96432523     -0.27700985
O       3.52173880      1.97228185     -0.89996676
C       2.84672344      3.23043124     -0.89270838
N      -2.89463920     -1.82894566      0.24823128
H      -7.06246314      1.47664180     -0.38982107
H      -6.93550227      0.16351199      0.80423679
H      -5.60943278      1.30298081      0.61542513
H      -6.58602891     -0.66880171     -1.51172010
H      -5.23496034      0.41516421     -1.76053035
H      -0.41561688      1.81238034     -0.16158438
H      -2.29073906      2.94485942      1.07643728
H      -3.10875472      3.07411673     -0.50672580
H      -1.58079839      3.91030778     -0.22470969
H      -1.22874447     -3.43220012      0.92271819
H       0.53842287     -0.36178104      1.19263772
H       4.24456953     -3.12144009      1.28117098
H       5.63431085     -3.59349084     -0.70647633
H       5.71438634     -1.97754793     -2.58837046
H       4.39055188      0.10755201     -2.49553897
H       3.56895663      4.00472456     -1.16550414
H       2.03792127      3.23421733     -1.63016900
H       2.46007199      3.45307040      0.10688995
