21
Nc1cc(S(=O)(=O)O)ccc1C(=O)O
N      -1.53744309      1.76341607      1.30678072
C      -0.83469201      0.71746417      0.68209515
C       0.53099803      0.58269884      0.96841682
C       1.31064746     -0.34746793      0.27482393
S       3.03320753     -0.50277346      0.65022718
O       3.49210567      0.74701144      1.21673404
O       3.21923237     -1.76740386      1.32291132
O       3.75282041     -0.59095431     -0.79140123
C       0.76226430     -1.12935834     -0.74120501
C      -0.58509614     -0.97446897     -1.06622009
C      -1.38390988     -0.04477973     -0.37449457
C      -2.82336156      0.09950701     -0.72475002
O      -3.67252275      0.66803112     -0.06068592
O      -3.13735072     -0.47868625     -1.89931607
H      -2.55559167      1.66183798      1.23457607
H      -1.24052232      1.97604487      2.25380343
H       0.98742429      1.21216781      1.73014931
H       4.41097297      0.13537560     -0.83338826
H       1.37286671     -1.85042482     -1.28104100
H      -1.00755469     -1.58291150     -1.86336803
H      -4.09449491     -0.29432574     -2.00464775
