38
CCONC(=O)c1cn(C)c(=O)c(F)c1Nc1ccc(Br)cc1F
C       4.34321244      1.74558149     -0.36118023
C       3.32486462      0.72294129      0.10602653
O       2.00225553      1.12834636     -0.26842542
N       1.76261091      0.73663075     -1.59885923
C       0.80099016     -0.18679523     -1.88311603
O       0.38933125     -0.32724920     -3.03476054
C       0.33709039     -1.08883660     -0.79237610
C       0.58328165     -2.39243678     -1.00792637
N       0.13976584     -3.36933241     -0.13378890
C       0.40773006     -4.76426635     -0.44878393
C      -0.62849401     -3.05889049      0.98985026
O      -1.07872121     -3.89552524      1.76906453
C      -0.88346768     -1.60477098      1.20378518
F      -1.55701817     -1.30777511      2.33635388
C      -0.44688886     -0.64594300      0.36314798
N      -0.62504482      0.71463289      0.54976853
C      -1.77780473      1.44343097      0.91111721
C      -3.05373234      0.87931545      1.02237980
C      -4.15271138      1.66132702      1.41571739
C      -3.98095867      3.01392819      1.71184911
Br     -5.46719883      4.06046845      2.23633994
C      -2.72384266      3.59572519      1.61822823
C      -1.64321935      2.80834570      1.22481449
F      -0.43188272      3.38284429      1.12771580
H       4.09114336      2.74380121      0.01061760
H       4.36046425      1.80857214     -1.45385707
H       5.34644559      1.47864312     -0.01335129
H       3.34484687      0.65374510      1.19906675
H       3.55559002     -0.27393346     -0.28994206
H       1.89259239      1.45437512     -2.30518355
H       1.11926386     -2.73698896     -1.88808984
H       1.46648780     -4.88607094     -0.69981202
H      -0.20964731     -5.05501332     -1.30446205
H       0.17178385     -5.41962651      0.39362108
H       0.14458179      1.30405916      0.21957861
H      -3.22448969     -0.16820742      0.78237084
H      -5.13500226      1.20078475      1.48369553
H      -2.56420793      4.64416334      1.84367997
