13
Nc1ccnc(=O)[nH]1
N      -2.03377007     -0.45276589     -0.02467293
C      -0.70997914     -0.09929862     -0.04275469
C      -0.29750639      1.17203643      0.00517168
C       1.15946104      1.36727595     -0.01716436
N       2.04547692      0.43378186     -0.08118530
C       1.59433095     -0.85910303     -0.14498687
O       2.34757947     -1.82492085     -0.22654654
N       0.23720129     -1.07267581     -0.11198313
H      -2.19791002     -1.34528431      0.43225922
H      -2.65342646      0.27173400      0.32847223
H      -0.94850620      2.03150907      0.05216587
H       1.49312685      2.41693907      0.02977683
H      -0.03607826     -2.03922787     -0.19855202
