46
CCCCCCCCCCCCN(C)C
C       7.24368992     -0.08418623      0.92550663
C       6.23699070      0.58365991      0.00153079
C       4.91972268     -0.18577059     -0.12996583
C       4.10711209     -0.21950915      1.16720178
C       2.79243482     -0.99651446      1.04055507
C       1.77349890     -0.32634326      0.11613735
C       0.44071448     -1.07893718      0.12351639
C      -0.57938955     -0.41355316     -0.80324540
C      -1.91205881     -1.16504823     -0.78970768
C      -2.93723431     -0.60453227     -1.78024120
C      -3.35016184      0.85563883     -1.55772965
C      -3.91771354      1.17240115     -0.16521773
N      -5.04967412      0.32277395      0.23913428
C      -6.24147204      0.57261783     -0.57371182
C      -5.36111835      0.54090414      1.65391444
H       8.19568778      0.45566215      0.89551176
H       6.89818579     -0.08556729      1.96322476
H       7.43155956     -1.11849879      0.62070139
H       6.04061534      1.60392986      0.35099442
H       6.68699976      0.67137033     -0.99470349
H       5.12387330     -1.20927780     -0.46676677
H       4.33208825      0.29680638     -0.91881268
H       3.89871395      0.80389748      1.50165350
H       4.69830275     -0.69682428      1.95681597
H       2.35574201     -1.09104864      2.04269738
H       2.99902129     -2.01485289      0.68942659
H       1.61137514      0.70971125      0.43692098
H       2.15891763     -0.29362987     -0.90880044
H       0.04175066     -1.11066040      1.14472373
H       0.60377038     -2.11636135     -0.19295746
H      -0.18350248     -0.38576105     -1.82555361
H      -0.72903464      0.62375637     -0.48372026
H      -2.32848762     -1.16664345      0.22407438
H      -1.73176240     -2.21607861     -1.04876642
H      -2.53344818     -0.69600613     -2.79651353
H      -3.82984096     -1.24125382     -1.75267236
H      -4.08198096      1.13031466     -2.32698549
H      -2.48637772      1.50784128     -1.73507227
H      -4.20322017      2.23237794     -0.13226568
H      -3.10156574      1.05634977      0.55910408
H      -6.06989389      0.30985226     -1.62213387
H      -7.07375973     -0.05679447     -0.23798455
H      -6.56317827      1.61918346     -0.52498591
H      -4.49601188      0.29811797      2.28115396
H      -5.65649854      1.57665011      1.85739475
H      -6.17338144     -0.12010060      1.97661975
