14
C=CCCN=C=S
C      -2.30718399      0.97078754     -0.48263459
C      -1.31126170      0.34146452      0.15373745
C      -0.51528978     -0.79383349     -0.43085267
C       0.97395799     -0.45787256     -0.57110653
N       1.58325881     -0.34348480      0.76592586
C       2.69023235      0.04626377      0.75724227
S       4.38712201      0.64055523      0.74573444
H      -2.60863059      0.69700935     -1.48879740
H      -2.84805946      1.77990039     -0.00080228
H      -1.05279529      0.64855037      1.16589499
H      -0.90869509     -1.06118681     -1.41917569
H      -0.64026213     -1.67388932      0.21148253
H       1.46368158     -1.26608660     -1.13032611
H       1.09392530      0.47182241     -1.14468645
