16
CCOC(=O)NC
C       2.85127714     -0.48776068      0.23522358
C       1.68938359      0.24810072     -0.40343144
O       0.47270765     -0.29903365      0.11802235
C      -0.64944410      0.27450551     -0.38079447
O      -0.67798759      1.18460576     -1.19446654
N      -1.73659645     -0.31999624      0.18229986
C      -3.07342119      0.15641688     -0.03985966
H       2.82335700     -0.38069049      1.32465626
H       2.79426698     -1.55973457      0.01905942
H       3.80646374     -0.10335877     -0.13320107
H       1.74974546      1.31497450     -0.16051710
H       1.72013899      0.11398018     -1.49061088
H      -1.54059889     -0.97114634      0.92916027
H      -3.77113350     -0.66108182      0.15543450
H      -3.26858996      0.98033133      0.65152278
H      -3.18956888      0.50988769     -1.06785874
