62
CCCN(CCC)Cc1cccc(C(=O)OCCOCn2cnc3c(=O)[nH]c(N)nc32)c1
C      -7.07709099      1.23283813      0.87080744
C      -5.66777040      1.79088628      0.96064004
C      -4.59043446      0.77743071      1.37926353
N      -4.23710920     -0.32576358      0.47324584
C      -5.22851841     -1.40670455      0.45348480
C      -4.58810924     -2.78559543      0.22742224
C      -3.61801030     -3.17668144      1.33259437
C      -3.85671105      0.10161912     -0.88079036
C      -2.59704112      0.94241556     -0.90987021
C      -2.62842217      2.26630361     -1.36998121
C      -1.46838210      3.04135788     -1.38067113
C      -0.26193524      2.49950971     -0.93727257
C      -0.20822614      1.17381766     -0.49023706
C       1.09994978      0.63757393     -0.03186595
O       2.04060216      1.34717778      0.28958954
O       1.08460180     -0.71514871     -0.07487157
C       2.30118623     -1.39468198      0.28065065
C       3.16912854     -1.62767664     -0.96084258
O       4.17270159     -2.63270673     -0.79241791
C       5.19389400     -2.33423390      0.15878195
N       6.14735573     -1.39414417     -0.38070828
C       7.27632385     -1.69362708     -1.09953408
N       7.98815033     -0.61576729     -1.37241458
C       7.27309595      0.41649805     -0.81439348
C       7.50873400      1.84591360     -0.79911131
O       8.48829949      2.41927712     -1.26721942
N       6.47376748      2.54283057     -0.18200986
C       5.36766934      1.95160985      0.39570292
N       4.43085525      2.78441372      0.91871821
N       5.17558701      0.66173910      0.43738544
C       6.13832803     -0.04498892     -0.19194657
C      -1.37635951      0.40048196     -0.47489369
H      -7.34521123      0.68994473      1.78235615
H      -7.79490567      2.04942772      0.74196561
H      -7.19364240      0.56582163      0.01443953
H      -5.40617976      2.27423481      0.01469674
H      -5.67191796      2.59060893      1.71196243
H      -4.85916285      0.36059499      2.35996918
H      -3.67398556      1.34764113      1.58479162
H      -5.76598874     -1.45642342      1.40966925
H      -5.98434150     -1.23572528     -0.32090410
H      -5.38805687     -3.53438275      0.18282458
H      -4.07253645     -2.82569010     -0.73999951
H      -2.75569019     -2.50694444      1.36373880
H      -3.24537324     -4.19317049      1.16628823
H      -4.11087129     -3.15520247      2.31182775
H      -4.68402116      0.62374029     -1.37746427
H      -3.64708108     -0.77125580     -1.51048063
H      -3.56137424      2.70587905     -1.71766167
H      -1.50690799      4.06951459     -1.73401230
H       0.63582866      3.11362187     -0.94712304
H       2.83844404     -0.85231249      1.06869239
H       2.01462872     -2.36029028      0.71681570
H       3.60551393     -0.69206489     -1.32960138
H       2.52146026     -1.97825310     -1.77587626
H       4.79311842     -1.96481253      1.10373188
H       5.73591644     -3.26105726      0.36795019
H       7.53045340     -2.70486973     -1.39316742
H       6.59950579      3.53932304     -0.12154907
H       3.54131692      2.27717523      1.00665808
H       4.28101930      3.64122340      0.39953707
H      -1.35606792     -0.62390336     -0.10731067
