30
O=C(Oc1cc([N+](=O)[O-])c(Cl)cc1Cl)Oc1cc([N+](=O)[O-])c(Cl)cc1Cl
O      -0.02823298     -0.09100263      0.43277541
C       0.04261856      0.11671486     -0.77233325
O      -1.01428960      0.08874327     -1.66987640
C      -2.23624310     -0.14255203     -1.03391190
C      -2.72926051     -1.44630757     -1.01970855
C      -3.96273033     -1.67936401     -0.40070067
N      -4.45557169     -3.03613215     -0.38031636
O      -4.46639850     -3.61646422      0.71134044
O      -4.78176333     -3.52366011     -1.46979125
C      -4.70891356     -0.64600049      0.17169259
Cl     -6.25458457     -0.88558539      0.89914556
C      -4.20386176      0.65852917      0.12882447
C      -2.97045161      0.91309606     -0.47718586
Cl     -2.39014265      2.53529754     -0.53694068
O       1.19411013      0.42187274     -1.48255970
C       2.33030033      0.40662953     -0.67024379
C       2.78710533      1.62157550     -0.16191098
C       3.93661450      1.61388250      0.63682383
N       4.38916176      2.87726434      1.17054486
O       4.78933512      3.71375705      0.35111896
O       4.29583902      3.04053622      2.39258629
C       4.63797480      0.43633705      0.90914474
Cl      6.08794464      0.39147314      1.84288659
C       4.17204779     -0.76958357      0.37275899
C       3.02146868     -0.78612813     -0.42026032
Cl      2.48973809     -2.28433611     -1.08670669
H      -2.16492780     -2.25791866     -1.47265123
H      -4.77443693      1.47841991      0.56092958
H       2.25771772      2.54675909     -0.37689304
H       4.70983246     -1.69585292      0.56594666
