14
N.N.O=C(O)O
N      -0.00370217     -0.00376596      0.29554815
N       0.00535027     -0.00939673      0.29539751
O      -1.08004060     -1.15463606     -0.02941659
C      -0.37363182     -0.17149041      0.01871959
O       0.95284670     -0.19871952     -0.12837058
O      -0.73670069      1.09225245      0.21823522
H      -0.20006060      0.91909034     -0.08934224
H      -0.69296143     -0.63186114     -0.11527921
H       0.89672419     -0.28346324     -0.09092670
H      -0.21925578      0.91671943     -0.06546529
H      -0.68461592     -0.64238918     -0.10663266
H       0.89852143     -0.26493352     -0.12329956
H       1.13197507     -1.15297369     -0.26873478
H       0.10555133      1.58556723      0.18956715
