24
COc1cc(/C=C/C(=O)O)ccc1O
C      -2.29195950     -1.94826021     -1.61642335
O      -2.73854703     -1.25105661     -0.45906619
C      -1.80111347     -0.50799672      0.21225387
C      -0.45217412     -0.37878421     -0.12621321
C       0.40332690      0.42410604      0.64972711
C       1.83406772      0.56386262      0.34299671
C       2.31965701      0.68831353     -0.90185705
C       3.74863289      0.83959101     -1.20698891
O       4.20102622      0.94058037     -2.33331678
O       4.54075192      0.85629070     -0.12502713
C      -0.10458582      1.07289283      1.78458123
C      -1.45022532      0.94852914      2.12846034
C      -2.28137706      0.16473467      1.34086692
O      -3.59775249      0.05748969      1.69884772
H      -1.53197542     -2.69327342     -1.35888207
H      -1.92446424     -1.25333168     -2.37869770
H      -3.15048123     -2.48040214     -2.03730893
H      -0.04314886     -0.90460188     -0.98204348
H       2.50035072      0.58671317      1.20314946
H       1.67777514      0.69805591     -1.77536900
H       5.44123495      0.96254167     -0.49567377
H       0.54183527      1.68850991      2.40655869
H      -1.84685537      1.45640565      3.00233460
H      -3.99399879     -0.53091004      1.02709091
