21
Cc1cc(S(=O)(=O)O)c(N)cc1Cl
C       3.18779357      0.02923096     -0.24255161
C       1.72447933     -0.19518442      0.01810253
C       0.77322134      0.54015468     -0.70290648
C      -0.59548866      0.34680628     -0.46769424
S      -1.77222377      1.38293203     -1.30008647
O      -2.76015370      0.49950692     -1.88623202
O      -1.05611428      2.36290816     -2.08624047
O      -2.49636312      2.15343976     -0.07554298
C      -1.05545009     -0.60885270      0.44996270
N      -2.42435391     -0.76861569      0.75885464
C      -0.09948851     -1.28513684      1.21565165
C       1.27171569     -1.09814420      0.99108339
Cl      2.37640047     -2.00772703      1.95984730
H       3.67730276     -0.91136725     -0.51477664
H       3.67151516      0.45267566      0.64344407
H       3.34457121      0.72791015     -1.07143382
H       1.09950297      1.28018603     -1.43318138
H      -2.83528177      1.48168650      0.55913386
H      -3.00548014     -0.77830998     -0.09043821
H      -2.60964495     -1.62406655      1.28470401
H      -0.41645961     -1.98003247      1.99030017
