15
Nc1ncc2[nH]cnc2n1
N       3.07205077     -0.02111934     -0.48023804
C       1.71947285     -0.09671350     -0.20494283
N       1.37715009     -0.75468468      0.91916906
C       0.07306003     -0.85624338      1.24935236
C      -0.83822385     -0.25641928      0.41627006
N      -2.19775373     -0.13081859      0.39538397
C      -2.52331216      0.60431342     -0.71282682
N      -1.45653773      0.95247099     -1.39773549
C      -0.40055340      0.41763829     -0.70811055
N       0.89419864      0.52314995     -1.04842458
H       3.25460287      0.78916568     -1.05631564
H       3.59940843     -0.11526749      0.37578048
H      -0.17738748     -1.40106824      2.14948004
H      -2.85010336     -0.50643127      1.06934864
H      -3.54607198      0.85202743     -0.96619067
