12
O=C(O)C(O)C(Cl)(Cl)Cl
O      -1.14971230      1.05621085      1.56972423
C      -0.98908109      0.47189439      0.51302850
O      -1.96898724     -0.31702309      0.01229596
C       0.24179097      0.50863321     -0.38044715
O      -0.12961722      0.15067663     -1.73068299
C       1.36192099     -0.37830855      0.19726967
Cl      1.90582815      0.16620894      1.81943138
Cl      2.81078991     -0.31476510     -0.88176471
Cl      0.85791800     -2.10204336      0.30870645
H      -2.70425652     -0.23892375      0.66054243
H       0.56630574      1.55448647     -0.43491676
H      -0.80289939     -0.55704664     -1.65318702
