11
CCC(=O)[O-].[Zr+4]
C      -1.11862685      0.08284485     -0.29528323
C       0.08287082     -0.18003283      0.58266677
C       1.34947647      0.03504943     -0.16503175
O       1.74252253      1.22257300     -0.32477724
O       2.06936874     -1.04361276     -0.66912829
Zr      0.00000000      0.00000000      0.00000000
H      -1.65573963      0.99528881      0.04357414
H      -0.82476814      0.29934120     -1.35303649
H      -1.81490096     -0.77888026     -0.30935790
H       0.09692344      0.54670454      1.43676817
H       0.07287357     -1.17927597      1.05360582
