29
CC(=O)C=C(C)[O-].CC(=O)C=C(C)[O-].[Co+2]
C       2.45715064      0.35870282      0.17916446
C       1.06623260      0.60111147      0.61904344
O       0.76180237      1.34912566      1.56714497
C      -0.00260207     -0.08639688     -0.11397281
C      -1.26479535      0.06283765      0.19848723
C      -2.30631479     -0.65099080     -0.56961735
O      -1.60769016      0.88634435      1.24311479
C      -2.21196388      0.01317008      0.74105005
C      -0.74856599      0.00723829      0.45641923
O       0.03305226      0.02853889      1.43325463
C      -0.21282193     -0.02185176     -0.88876064
C       1.08231716     -0.02591609     -1.08655210
C       2.09759876     -0.00239808     -0.01187974
O       1.52812784     -0.05484680     -2.42180721
Co      0.00000000      0.00000000      0.00000000
H       2.44944753      0.24901988     -0.91563717
H       3.17569018      1.10221948      0.55727709
H       2.73826553     -0.65387422      0.58162473
H       0.23433734     -0.74917868     -0.95074343
H      -1.88161637     -1.46212951     -1.20011418
H      -3.08115794     -1.11741141      0.05772053
H      -2.73874950      0.11062022     -1.28336101
H      -2.78135407      0.20243572     -0.18727105
H      -2.48246966      0.79779192      1.47936076
H      -2.55705270     -0.96474460      1.15275261
H      -0.91765351     -0.03968722     -1.70406773
H       2.02521992      0.92091780      0.62856275
H       2.03267316     -0.88364699      0.66825985
H       3.11289264      0.02299882     -0.45833398
