20
O=C(O)c1cccc([N+](=O)[O-])c1C(=O)O
O       3.21452333      0.07150546     -1.19726755
C       2.35624323      0.28589364     -0.36419825
O       2.57341113      1.04566379      0.72038711
C       1.02234380     -0.33955883     -0.32544772
C       0.95981204     -1.71439774     -0.61311445
C      -0.25625127     -2.39751902     -0.54887277
C      -1.41985805     -1.70872066     -0.21345625
C      -1.35283245     -0.33049464      0.04472479
N      -2.60031964      0.36303089      0.30530830
O      -3.31944945     -0.09391421      1.20343220
O      -2.87755954      1.32344526     -0.42424077
C      -0.14163941      0.36824971     -0.00198748
C      -0.08012083      1.81654994      0.23408310
O       0.42636601      2.64125030     -0.49843665
O      -0.63713038      2.12251166      1.41605912
H       3.47437142      1.41083143      0.58683951
H       1.86753830     -2.25783481     -0.87589272
H      -0.29355438     -3.46400627     -0.76398810
H      -2.36962578     -2.24016366     -0.17355492
H      -0.54626807      3.09767775      1.48962350
