54
CCCCCCOC(=O)c1ccccc1C(=O)OCCCCCC
C       5.63384399      1.03507986      1.58012888
C       5.21741376     -0.40954132      1.35417307
C       3.74943600     -0.50944337      0.93515496
C       3.33831253     -1.96345473      0.69588970
C       1.83429456     -2.16645951      0.47410223
C       1.29598269     -1.56475243     -0.82180176
O       1.24191394     -0.14018190     -0.69762681
C       0.61734487      0.49254428     -1.71823782
O       0.15354903     -0.02201280     -2.72173954
C       0.67660460      1.95173005     -1.49473478
C       1.02359041      2.74796671     -2.59737559
C       1.16785334      4.12906123     -2.45138239
C       0.96682239      4.72389552     -1.20677604
C       0.60143213      3.94152204     -0.10976526
C       0.43533577      2.55512518     -0.25296200
C      -0.02092687      1.81206699      0.93870697
O       0.39265613      2.02197097      2.06658389
O      -1.01580974      0.96549735      0.58293969
C      -1.56377051      0.20527152      1.66650378
C      -2.52017157     -0.84308159      1.10136504
C      -3.72106702     -0.20809706      0.39234244
C      -4.64728297     -1.23303678     -0.26922727
C      -5.35781200     -2.14693173      0.72998182
C      -6.35472215     -3.06075426      0.03330359
H       5.50692612      1.62710735      0.66804254
H       6.68702266      1.08450589      1.87330972
H       5.03794349      1.49536748      2.37408400
H       5.85574922     -0.85175985      0.58054964
H       5.38208491     -0.97907079      2.27623082
H       3.60594503      0.07542991      0.02066660
H       3.11524421     -0.06744124      1.71294724
H       3.89359810     -2.36673284     -0.15945788
H       3.62984971     -2.56209247      1.56801929
H       1.28790566     -1.75164518      1.32951832
H       1.64190114     -3.24608984      0.45611840
H       0.28405603     -1.94993338     -0.99415354
H       1.93434966     -1.83741233     -1.66953307
H       1.19642048      2.28984949     -3.57009312
H       1.44414732      4.73960324     -3.30844280
H       1.08703770      5.79898355     -1.09136017
H       0.43381270      4.41563138      0.85611111
H      -2.09411917      0.87732682      2.35060223
H      -0.75653747     -0.30142591      2.20860209
H      -1.97952267     -1.47469925      0.38612139
H      -2.86035511     -1.48218492      1.92288050
H      -3.36515057      0.47611328     -0.38765587
H      -4.29215685      0.39760649      1.10606735
H      -5.39970912     -0.68658168     -0.85166268
H      -4.07538290     -1.83812717     -0.98314241
H      -5.88555191     -1.54370958      1.47784305
H      -4.62963661     -2.76621292      1.26404654
H      -6.84986584     -3.70874562      0.76335940
H      -7.12627124     -2.47947093     -0.48235376
H      -5.85455802     -3.69817317     -0.70290021
