32
CN(C)C(=O)c1ccc(C(=O)N(C)C)cc1
C      -3.79562497      0.34714600     -0.96479507
N      -3.70766638     -0.67804984      0.06682354
C      -4.96304005     -1.29154990      0.46373288
C      -2.58324391     -0.91332469      0.85530553
O      -2.61422301     -1.52322757      1.92201375
C      -1.26343447     -0.42846566      0.39141580
C      -0.78246070     -0.77241564     -0.87876025
C       0.47748535     -0.32860551     -1.28428985
C       1.26343450      0.42846643     -0.40723248
C       2.58324429      0.91332471     -0.87112162
O       2.61422453      1.52322651     -1.93783022
N       3.70766622      0.67804956     -0.08263920
C       4.96304015      1.29154950     -0.47954743
C       3.79562399     -0.34714566      0.94898039
C       0.78246022      0.77241740      0.86294291
C      -0.47748505      0.32860611      1.26847324
H      -2.88242484      0.93703766     -1.05412342
H      -4.61163709      1.03141205     -0.71132334
H      -4.01551214     -0.13875555     -1.91951417
H      -4.79951145     -2.16427516      1.10203338
H      -5.50593272     -1.60768335     -0.43185737
H      -5.55594933     -0.55433951      1.01315257
H      -1.38208152     -1.38466476     -1.54749044
H       0.85067940     -0.57318968     -2.27645823
H       5.50593307      1.60768098      0.41604317
H       5.55594978      0.55433837     -1.02896647
H       4.79951208      2.16427493     -1.11784805
H       4.01551294      0.13875629      1.90369889
H       4.61163552     -1.03141284      0.69550899
H       2.88242299     -0.93703608      1.03831002
H       1.38208096      1.38466652      1.53167325
H      -0.85067836      0.57318840      2.26064270
