34
C[C@@H]1O[C@@H]1P(=O)(O)O.NC(CO)(CO)CO
C       1.58272527      0.66450772     -0.43152400
C       1.09543409     -0.73462771     -0.55101008
O       0.04573034     -0.91885904     -1.50413694
C      -0.27559641     -1.18546459     -0.11879223
P      -1.45377650     -0.09967918      0.68409424
O      -2.51925937     -0.96559874      1.25367634
O      -0.62338210      0.79357531      1.71148841
O      -1.89317336      0.93873233     -0.44769831
N      -0.81492263     -0.22990384      1.44512382
C       0.00295373     -0.13343283      0.19610852
C       1.16480866     -1.14975193      0.22161232
O       1.95944858     -1.05510459     -0.95508132
C       0.55278857      1.31428585      0.08110011
O      -0.49976554      2.27013657      0.26550932
C      -0.92254641     -0.42671824     -1.01163142
O      -2.10089404      0.38800177     -0.94502680
H       0.79956114      1.40323187     -0.62347184
H       2.38712727      0.84077572     -1.15280562
H       1.98578451      0.83940383      0.57049907
H       1.90024509     -1.45851420     -0.52727254
H      -0.37293755     -2.22434907      0.17109615
H      -1.21675528      1.33470304      2.26585384
H      -1.44172715      0.77216271     -1.29999646
H      -0.18287395     -0.20105739      2.24787276
H      -1.31286842      0.66732554      1.52299118
H       0.78176395     -2.17420191      0.29340854
H       1.81725591     -0.97028282      1.08380849
H       2.65376397     -1.73475999     -0.88685197
H       1.30327352      1.50899995      0.85495166
H       1.01469133      1.49961315     -0.89445684
H      -1.19185189      2.03575680     -0.39031230
H      -1.24237555     -1.47495120     -1.02814232
H      -0.42297512     -0.21037616     -1.96163381
H      -2.55967466      0.07642129     -0.13934994
