29
C=C(C)C(=O)OCCOC(=O)CC(C)=O
C      -4.00935136      0.92601990      2.14424983
C      -3.99198588      1.12413127      0.81478567
C      -5.09085249      1.85046016      0.09860981
C      -2.88325698      0.63720104     -0.05678552
O      -2.85968498      0.80985754     -1.26647962
O      -1.92405863      0.00310906      0.66270272
C      -0.82944169     -0.52717913     -0.09889754
C       0.19752782      0.55532000     -0.42377486
O       1.29897567      0.02094620     -1.17701849
C       2.26955371     -0.59787321     -0.44697886
O       2.25362400     -0.72411705      0.76794794
C       3.35546050     -1.07635410     -1.36027372
C       4.43712899     -1.85832812     -0.66530679
C       5.30122628     -1.13400775      0.33502412
O       4.62402636     -3.04938099     -0.92115986
H      -4.82956852      1.28929951      2.75591919
H      -3.21636755      0.39801436      2.66567391
H      -5.87623537      2.18395105      0.78530710
H      -5.55879185      1.19962626     -0.64746871
H      -4.69751201      2.73756859     -0.40880741
H      -0.37026631     -1.31572596      0.50657764
H      -1.18491861     -1.02451031     -1.01024435
H      -0.25720742      1.34051641     -1.03673808
H       0.54766823      1.05773879      0.48664953
H       2.90726226     -1.72378987     -2.12241052
H       3.81832521     -0.21845001     -1.85834710
H       5.57334580     -0.14911896     -0.05283727
H       4.77403890     -1.03227997      1.28526633
H       6.22133591     -1.70264474      0.49825880
