14
OC1CCOC1
O       1.77726952      0.57163700      0.41043969
C       0.88747195     -0.10133769     -0.48136506
C      -0.31552085      0.76984768     -0.74766542
C      -1.18937845      0.50283582      0.46332827
O      -0.83074103     -0.78901928      0.98007174
C       0.25573131     -1.30795148      0.19057198
H       1.37856967      0.54481199      1.30003354
H       1.44694512     -0.35924176     -1.38399430
H      -0.08663232      1.83374585     -0.85635065
H      -0.83233391      0.42741953     -1.65178713
H      -2.25509549      0.51513897      0.21685314
H      -1.00953648      1.23828341      1.25439861
H       0.94285681     -1.84618017      0.84914752
H      -0.16960584     -1.99998986     -0.54368193
