45
CNC1CN(c2cc3c(cc2F)c(=O)c(C(=O)O)cn3C2CC2)C1C
C      -5.85406866     -0.46019901     -1.32450060
N      -4.51959835     -1.00595368     -1.11664047
C      -4.00788973     -0.58489497      0.20712761
C      -2.58395981     -1.15568346      0.39379357
N      -2.07770445      0.09247012     -0.09648626
C      -0.75764377      0.55510263     -0.23719675
C       0.32551244     -0.32029633     -0.03811099
C       1.66067301      0.09998674     -0.17196037
C       1.89539303      1.43789788     -0.53989753
C       0.84003941      2.32609642     -0.75381250
C      -0.46700816      1.87796861     -0.60328080
F      -1.45743145      2.75201723     -0.83939363
C       3.28783981      1.90907981     -0.72647520
O       3.53904671      3.07824553     -1.01216906
C       4.38602214      0.93082513     -0.58243515
C       5.80831195      1.25523828     -0.81416846
O       6.70928137      0.43510190     -0.71207993
O       6.04283937      2.54176088     -1.15131413
C       4.04865147     -0.31620356     -0.22136230
N       2.76839651     -0.76744000      0.04897014
C       2.58670661     -2.19650602      0.37038619
C       2.00123572     -2.64264568      1.68826935
C       3.44210865     -2.91007640      1.39064440
C      -3.31071490      0.80198448      0.11887252
C      -3.33298416      1.60103191      1.41442753
H      -6.23827604     -0.79840258     -2.29185787
H      -6.54956402     -0.81113178     -0.55504366
H      -5.85134134      0.63434926     -1.32851025
H      -3.90889917     -0.71803428     -1.88414228
H      -4.68437546     -0.75806823      1.04987487
H      -2.30631138     -2.01547778     -0.22275219
H      -2.29524768     -1.33569390      1.43512856
H       0.11130733     -1.35124304      0.22528515
H       1.01799944      3.35733434     -1.04453542
H       5.23041380      3.10351012     -1.19386464
H       4.81630780     -1.08022353     -0.10944620
H       2.31394393     -2.77370176     -0.51120296
H       1.77453439     -1.88957861      2.43420593
H       1.31599573     -3.48193539      1.67960469
H       3.73823023     -3.93016169      1.17483627
H       4.17804408     -2.34635250      1.95205541
H      -3.59031345      1.41568216     -0.74547556
H      -2.99500936      1.01086085      2.27320602
H      -4.35148930      1.94326600      1.62652763
H      -2.69900427      2.49009391      1.34489934
