68
CC1CC2C(C(O)CC3(C)C2CCC3(O)C(=O)COC(=O)CCC(=O)O)C2(C)C=CC(=O)C=C12
C      -5.54664952     -1.42652231      1.01304270
C      -4.63357950     -1.00517555     -0.14131910
C      -3.20993343     -1.55270788      0.00651854
C      -2.30301866     -0.72890733      0.94447309
C      -2.26382122      0.77710605      0.54139549
C      -1.37394306      0.95592596     -0.71866697
O      -1.19239691      2.33945379     -1.02181097
C       0.04518685      0.42023498     -0.47683222
C       0.12361157     -1.06236798     -0.07096648
C      -0.09481934     -1.94302963     -1.31770323
C      -0.89880132     -1.36981639      1.05838005
C      -0.18422722     -0.94344449      2.36089226
C       1.31246629     -0.86253127      2.05242324
C       1.47093838     -1.42485366      0.64053431
O       1.54571779     -2.85872469      0.78857055
C       2.75349555     -1.00988288     -0.11487390
O       3.20281290     -1.76219197     -0.99105408
C       3.42410869      0.32132886      0.21435173
O       4.62835066      0.50968011     -0.53412858
C       5.71061884     -0.13944699     -0.02005927
O       5.70750340     -0.80409874      1.00677582
C       6.90657429      0.05849382     -0.91884433
C       8.21232981     -0.15897045     -0.16146627
C       8.41373711      0.89305240      0.89416436
O       7.75120797      1.90389615      1.05868727
O       9.47385122      0.62575680      1.68013945
C      -3.72231723      1.38241596      0.45532539
C      -4.32016188      1.51542180      1.88096482
C      -3.71775397      2.82100863     -0.04702339
C      -4.44770515      3.28994938     -1.06685926
C      -5.33853730      2.39489376     -1.82326314
O      -6.02710913      2.80878291     -2.74745485
C      -5.34825526      0.96915366     -1.43736838
C      -4.62123897      0.48955298     -0.40896813
H      -6.50045782     -0.88822578      0.98381375
H      -5.77049268     -2.49736455      0.93602187
H      -5.09370585     -1.27534335      1.99518436
H      -5.05290769     -1.50466911     -1.02796442
H      -2.77600449     -1.59500268     -0.99465797
H      -3.25443676     -2.59247235      0.35596880
H      -2.74735804     -0.80326329      1.94463122
H      -1.75929779      1.33159703      1.34700223
H      -1.83753985      0.48283902     -1.59015941
H      -0.91814787      2.40320733     -1.95423591
H       0.50132332      1.05441873      0.29390994
H       0.65195040      0.59711499     -1.37536452
H      -0.94002734     -1.61001893     -1.92361999
H       0.77740997     -1.91098732     -1.97890473
H      -0.27170098     -2.99090937     -1.05200085
H      -1.03188735     -2.45952763      1.12746344
H      -0.37770637     -1.67899755      3.15053217
H      -0.53441218      0.02283509      2.73925074
H       1.62024840      0.18468113      2.12993188
H       1.88907040     -1.42960358      2.79187033
H       2.00674316     -3.19563180     -0.00864257
H       2.75283919      1.13546795     -0.06466048
H       3.63095979      0.39733110      1.28582246
H       6.87800099      1.07207461     -1.33785114
H       6.82937279     -0.66167718     -1.74153407
H       9.05220256     -0.09740295     -0.86123970
H       8.21994755     -1.14572442      0.31463133
H       9.49087834      1.36647240      2.32242485
H      -5.37026012      1.83380536      1.84891651
H      -4.28108672      0.59079673      2.45739494
H      -3.77232233      2.25924654      2.47457083
H      -3.06200042      3.51866992      0.47199539
H      -4.41103309      4.32437825     -1.38348565
H      -5.97640337      0.33844984     -2.05702158
