32
CC(C)(C)c1ccc(CCC=O)cc1
C      -3.02119913     -1.20383481     -1.05698686
C      -2.47506599     -0.23089329      0.01245264
C      -2.73997010     -0.87366611      1.39116031
C      -3.28756665      1.07693171     -0.10283113
C      -0.97472237      0.07753144     -0.13501929
C      -0.33898735      0.94646023      0.77197066
C       1.02246048      1.24873487      0.66671937
C       1.79616227      0.68922374     -0.35240651
C       3.26993595      0.99546351     -0.45728000
C       4.10222746      0.30884700      0.62008849
C       4.14181875     -1.18097982      0.40602260
O       5.16282961     -1.78649618      0.09307119
C       1.17993481     -0.17186158     -1.26404239
C      -0.18330934     -0.47262559     -1.15550837
H      -4.09115956     -1.39352072     -0.90895638
H      -2.90349566     -0.79883989     -2.06886165
H      -2.51357299     -2.17462178     -1.01612422
H      -3.79796132     -1.13609644      1.50824200
H      -2.15270213     -1.79089309      1.51806974
H      -2.48370830     -0.20219172      2.21793862
H      -3.09855351      1.57554725     -1.06092500
H      -4.36408474      0.88072351     -0.03556689
H      -3.04184351      1.78914409      0.69247330
H      -0.90203370      1.40739694      1.58100619
H       1.46884471      1.92934480      1.38858315
H       3.63836628      0.71335724     -1.45191005
H       3.40235213      2.08224116     -0.38220569
H       3.71521123      0.49881896      1.62659984
H       5.13102585      0.68437986      0.58295730
H       3.18940001     -1.71828299      0.55352649
H       1.75266730     -0.62107823     -2.07341160
H      -0.60330048     -1.14826407     -1.89579881
