24
CC(=O)O[C@@H](C(=O)O)c1ccccc1
C       3.77792370     -0.67567924     -0.46354323
C       2.71629398     -0.26992257      0.51137247
O       2.91848210     -0.00626238      1.68803024
O       1.50261682     -0.25188262     -0.09902088
C       0.42922517      0.19257557      0.74486433
C       0.51373859      1.69926380      1.02565391
O       1.22017738      2.51396573      0.44836524
O      -0.30723474      2.10510885      2.02083085
C      -0.87553344     -0.15803317      0.04842910
C      -1.89722100     -0.81702542      0.74975754
C      -3.10384328     -1.12767970      0.11990902
C      -3.30527589     -0.78129230     -1.21465165
C      -2.30203836     -0.12220246     -1.92177877
C      -1.09480381      0.18996195     -1.29491126
H       3.80119085      0.02742939     -1.29997274
H       4.75229173     -0.65643029      0.03295581
H       3.58595478     -1.69106149     -0.81894403
H       0.48857029     -0.34412422      1.70104848
H      -0.14201059      3.06933210      2.08252041
H      -1.76332564     -1.09000585      1.79468591
H      -3.88857680     -1.63863102      0.67208181
H      -4.24537006     -1.02358923     -1.70336792
H      -2.45937241      0.14980544     -2.96238222
H      -0.32185937      0.70637915     -1.86193242
