26
CC1(c2ccccc2)C(=O)NC(=O)NC1=O
C       0.56372212     -1.90310864     -1.21859921
C       0.71482055     -0.60343290     -0.40851998
C      -0.70254794     -0.10946357     -0.03975158
C      -1.34115099     -0.54357047      1.13768940
C      -2.62904200     -0.10917530      1.46165791
C      -3.31190813      0.75224486      0.60919819
C      -2.71310742      1.16995795     -0.57485934
C      -1.42533691      0.73739592     -0.90174632
C       1.55503638     -0.88057855      0.84271723
O       1.69865442     -1.99096717      1.35103023
N       2.14033676      0.21646168      1.41743962
C       2.58896526      1.27644917      0.69485290
O       3.50538570      1.98350678      1.10111911
N       2.05933175      1.44892432     -0.54478939
C       1.46870346      0.43299954     -1.24866023
O       1.54067554      0.41276457     -2.47600749
H       0.05101017     -2.68352389     -0.64351663
H      -0.01073080     -1.74414061     -2.13912868
H       1.54363013     -2.30096908     -1.50894450
H      -0.85636828     -1.24020781      1.82029322
H      -3.10271813     -0.45362635      2.37788808
H      -4.31546515      1.08571683      0.86007719
H      -3.25259685      1.82691697     -1.25298125
H      -1.00797280      1.06659232     -1.85237924
H       2.68857373      0.02298879      2.24514485
H       2.55009943      2.12984464     -1.10922409
