16
NC(CC(=O)O)C(=O)O
N      -1.35342669      1.60210060      0.72645053
C      -0.67612033      0.31642050      0.40928486
C       0.76969896      0.60409432      0.00354034
C       1.59374093     -0.64437083      0.11673527
O       1.15547484     -1.77357885      0.28537200
O       2.90967937     -0.41544245     -0.02144246
C      -1.43786032     -0.38474244     -0.73469565
O      -2.25576959      0.18276070     -1.44885668
O      -1.14248705     -1.69357500     -0.88976559
H      -2.32308277      1.39381260      0.98128939
H      -1.45588127      2.12521232     -0.15033165
H      -0.74092177     -0.31111278      1.30532599
H       1.21012570      1.34613581      0.68058063
H       0.83202308      0.97382988     -1.02591994
H       3.34877766     -1.28880269      0.05362449
H      -0.43397077     -2.03274170     -0.29119152
