33
O=C1CC(c2ccc(O)c(O)c2)Oc2cc(O)cc(O)c21
O       2.38443352      1.08229498     -2.51383171
C       1.75905568      0.75205986     -1.50876226
C       0.26663059      0.86857629     -1.39687449
C      -0.22568507     -0.22145100     -0.45461704
C      -1.73548461     -0.15586943     -0.31110130
C      -2.35059535      0.72077224      0.60370367
C      -3.74379056      0.78906654      0.71106146
C      -4.52569523     -0.01746327     -0.10471103
O      -5.89162257      0.00317384     -0.04837429
C      -3.92825754     -0.88103753     -1.01771176
O      -4.70365515     -1.66773429     -1.82061148
C      -2.54667632     -0.95726100     -1.13023279
O       0.37282175     -0.08395509      0.84540632
C       1.74240930     -0.09457695      0.80714076
C       2.39774808     -0.47678313      1.97642583
C       3.78948532     -0.51361425      2.00427292
O       4.38927940     -0.90382120      3.16510289
C       4.54020860     -0.16443556      0.88495713
C       3.88226829      0.23769182     -0.27494916
O       4.66979676      0.58852811     -1.33829417
C       2.48391702      0.27967859     -0.31521034
H       0.03648746      1.87309932     -1.02317296
H      -0.17487626      0.74909911     -2.39239401
H       0.04273221     -1.21827592     -0.83495175
H      -1.74120161      1.35520875      1.24570517
H      -4.18878110      1.47013906      1.42917175
H      -6.15546332      0.63871287      0.63914562
H      -5.62163706     -1.44821501     -1.56376178
H      -2.11353531     -1.64119933     -1.85539673
H       1.82919696     -0.75526001      2.85956815
H       5.35361464     -0.88453013      3.04263406
H       5.62528944     -0.18992007      0.89847816
H       4.08158205      0.86730182     -2.07712791
