21
Cc1cc(S(=O)(=O)[O-])ccc1N.[Na+]
C      -1.89012983     -0.99760004      1.34086916
C      -0.86233232     -0.35139952      0.45602228
C       0.49492897     -0.45872312      0.80527095
C       1.47800264      0.10580732     -0.01121847
S       3.22411808     -0.06467992      0.44519934
O       3.90942972     -0.02915400     -0.84460837
O       3.26042347     -1.35591709      1.12766681
O       3.42319161      1.10445658      1.29650902
C       1.13203152      0.74888703     -1.19733960
C      -0.21529907      0.86264653     -1.54373008
C      -1.22367392      0.37127976     -0.69908317
N      -2.56113098      0.43323852     -1.13717081
Na      0.00000000      0.00000000      0.00000000
H      -2.51853074     -1.68131810      0.76097259
H      -2.51814014     -0.23382517      1.81046848
H      -1.42381776     -1.58360689      2.14011934
H       0.80470723     -0.98735690      1.70439701
H       1.90948590      1.14810572     -1.84292796
H      -0.47076160      1.34679338     -2.48145391
H      -3.22471582      0.40459045     -0.37141622
H      -2.72778695      1.21777548     -1.75854637
