42
NS(=O)(=O)c1ccc(Nc2ccnc(NS(=O)(=O)c3ccccc3)n2)cc1
N       6.53679360     -1.35768642      2.08188746
S       5.57628489     -2.48684615      1.29375939
O       6.19105867     -2.69911133      0.00442810
O       5.36478712     -3.55810546      2.23877560
C       4.06529101     -1.59367901      1.07911537
C       3.84750225     -0.87022102     -0.09413520
C       2.63985781     -0.18603138     -0.27137208
C       1.63858917     -0.22594788      0.70730960
N       0.41311504      0.45552540      0.59564433
C      -0.00703702      1.46534019     -0.27522700
C       0.81910870      2.50046803     -0.66512525
C       0.26134981      3.45978072     -1.47891238
N      -1.01355535      3.42258763     -1.89775814
C      -1.70785911      2.35936575     -1.49086189
N      -3.05854008      2.41941455     -1.81434541
S      -3.76420806      1.00176654     -2.32537993
O      -2.82751035      0.26025077     -3.14361767
O      -5.06195892      1.37015589     -2.85653522
C      -4.07156740      0.10382693     -0.82434660
C      -4.99993125      0.60531264      0.09306855
C      -5.25367589     -0.10330273      1.26728610
C      -4.58895644     -1.30620741      1.51556064
C      -3.67065503     -1.80784945      0.59100221
C      -3.41090471     -1.10531840     -0.58557042
N      -1.29170604      1.40775517     -0.65669517
C       1.87500452     -0.97305192      1.87278365
C       3.07800298     -1.65878540      2.06208808
H       7.34346689     -1.12654098      1.50120087
H       6.78491625     -1.70362079      3.00933722
H       4.60243536     -0.83935828     -0.87688165
H       2.48457292      0.34449079     -1.20679772
H      -0.38365104     -0.14589258      0.79413299
H       1.84096568      2.58508671     -0.32166625
H       0.83959010      4.31602233     -1.81424058
H      -3.29065311      3.21227557     -2.40124692
H      -5.52438280      1.53735190     -0.10326996
H      -5.97339902      0.27820202      1.98747772
H      -4.79319911     -1.85813389      2.43010526
H      -3.16305412     -2.74955987      0.78501158
H      -2.69656557     -1.49958792     -1.30481415
H       1.11663871     -1.01647808      2.65226401
H       3.23363896     -2.23366316      2.97215158
