55
C[C@]12CC[C@H]3[C@@H](CCC4=CC(=O)CC[C@@]43C)[C@@H]1CCC2(O)C#CCO
C       1.37681834      0.43385106     -1.94968298
C       1.56149640      0.61009008     -0.41421883
C       1.61634983     -0.77182673      0.26178954
C       0.27494688     -1.51845813      0.15327368
C      -0.93632671     -0.69254275      0.66305019
C      -0.96664040      0.73903556      0.04452149
C      -2.08373657      1.56782020      0.69252362
C      -3.44088787      0.89556257      0.52918819
C      -3.44151538     -0.52313947      1.04702099
C      -4.40965652     -0.91880513      1.89080854
C      -4.53319619     -2.32628619      2.33370042
O      -5.41582418     -2.63500806      3.13059761
C      -3.61399737     -3.34509409      1.71915887
C      -2.25434024     -2.72799188      1.42651384
C      -2.31953317     -1.44287587      0.54696334
C      -2.63863317     -1.84767712     -0.90929727
C       0.40414927      1.39664743      0.24913117
C       0.60984009      2.82813476     -0.24106068
C       2.13991514      2.97905080     -0.36749782
C       2.74311893      1.57782636     -0.10510474
O       3.09431793      1.52076224      1.27901450
C       3.96216154      1.34169420     -0.89299234
C       4.97255720      1.14822744     -1.51568602
C       6.21385639      0.91880258     -2.25711350
O       7.19865757      0.37803172     -1.38929673
H       0.46316496     -0.10653442     -2.20838945
H       2.20664258     -0.14295086     -2.37730969
H       1.33564437      1.39019164     -2.48227335
H       1.84686529     -0.66881585      1.33028241
H       2.41904228     -1.38060901     -0.16716498
H       0.11737240     -1.83127442     -0.88511930
H       0.36558958     -2.44173197      0.73656961
H      -0.75569418     -0.54643336      1.74084470
H      -1.18235279      0.67647658     -1.02708720
H      -1.87191882      1.71798334      1.75971391
H      -2.12987052      2.56351810      0.23548981
H      -4.19593416      1.50455416      1.04218847
H      -3.72244329      0.88843007     -0.53143867
H      -5.18641996     -0.25229390      2.24894959
H      -4.08113483     -3.74208814      0.81206455
H      -3.48796578     -4.17292964      2.42675026
H      -1.62452127     -3.48817104      0.95216569
H      -1.77970575     -2.48738328      2.38678430
H      -3.64873396     -2.26413080     -0.99885631
H      -1.94623799     -2.61191402     -1.27633114
H      -2.58389170     -0.99713171     -1.59690984
H       0.57431342      1.42162002      1.33851102
H       0.19867368      3.56183304      0.46173559
H       0.12804197      2.99506764     -1.21254598
H       2.37828859      3.35294781     -1.37131295
H       2.50742997      3.71694999      0.35584331
H       3.66996513      0.74581403      1.39215411
H       6.59868509      1.85173477     -2.67988914
H       6.05558053      0.21289396     -3.07718633
H       7.21762740      0.94854575     -0.60161574
