48
C=CCCCCCCCCC(=O)N(CCO)CCO
C       6.99702410      2.33720253      1.06974150
C       5.93286852      1.59783740      1.40666674
C       4.94685355      1.04067623      0.41929176
C       4.93349840     -0.48947229      0.45589731
C       4.02430602     -1.11512389     -0.60654890
C       2.53927332     -0.80988886     -0.39274363
C       1.67131034     -1.54875201     -1.41521789
C       0.16861356     -1.36892858     -1.17841496
C      -0.31487164      0.06692201     -1.41072624
C      -1.83558059      0.19502884     -1.28131870
C      -2.33122002      0.13468462      0.15836579
O      -1.54942410      0.12903626      1.10930291
N      -3.70903180      0.12980972      0.35746771
C      -4.20094004      0.13864206      1.74600991
C      -4.08514714      1.51947132      2.39972742
O      -4.85973043      2.47819679      1.68094201
C      -4.71521812      0.06932926     -0.71582783
C      -5.02315695     -1.36532866     -1.16166412
O      -5.57743217     -2.13150043     -0.09810414
H       7.21984549      2.57968376      0.03542213
H       7.67212349      2.71689821      1.83054034
H       5.74895879      1.38559405      2.45817242
H       3.95715466      1.43665533      0.67197980
H       5.18058357      1.38397161     -0.59575545
H       4.62682662     -0.83772416      1.45040624
H       5.95279067     -0.86380833      0.29424466
H       4.17365412     -2.20183800     -0.58501274
H       4.33301597     -0.77399612     -1.60221554
H       2.37134596      0.26785109     -0.48070373
H       2.24557267     -1.10656671      0.62116448
H       1.89705784     -2.62137251     -1.36751084
H       1.92775083     -1.21713804     -2.42871683
H      -0.36598441     -2.03882747     -1.86347439
H      -0.08013613     -1.69652735     -0.16264287
H       0.17569725      0.75581044     -0.71466817
H      -0.02705414      0.37626314     -2.42302562
H      -2.13026794      1.17184278     -1.68269085
H      -2.31559270     -0.58362317     -1.87943615
H      -5.24733571     -0.18485063      1.75130829
H      -3.62287028     -0.58929683      2.32649908
H      -3.05036313      1.87325409      2.43586986
H      -4.46690374      1.48013062      3.42436972
H      -4.44491546      2.54748855      0.80341757
H      -5.62743675      0.55663510     -0.35350012
H      -4.36024745      0.64539510     -1.57515210
H      -5.75434722     -1.34884197     -1.97560383
H      -4.12917223     -1.88309466     -1.52065249
H      -4.87174547     -2.23781025      0.56452047
