29
O=C(O)c1c(Cl)c(Cl)c(Cl)c(Cl)c1C(=O)Nc1cccc(Cl)c1Cl
O      -1.31300128     -2.37781571      0.85346437
C      -2.20750639     -1.55917015      0.90981053
O      -2.99068623     -1.36449142      1.97815764
C      -2.54202348     -0.60991575     -0.15467562
C      -3.72078323     -0.74901402     -0.89678801
Cl     -4.80845583     -2.06311880     -0.56213324
C      -3.99212057      0.16211228     -1.93441488
Cl     -5.45650954      0.00604045     -2.86486523
C      -3.07553672      1.19478841     -2.22782975
Cl     -3.41071999      2.31948599     -3.51502915
C      -1.88536610      1.31501311     -1.48589387
Cl     -0.74936652      2.58512818     -1.82713226
C      -1.62214327      0.40237312     -0.45680822
C      -0.41809320      0.53652740      0.38579740
O      -0.58609562      0.94824363      1.52440210
N       0.75344450      0.15339581     -0.22663518
C       2.06139759      0.16184409      0.32225320
C       2.33362176      0.59024305      1.62535610
C       3.64038863      0.57993691      2.12051284
C       4.69136188      0.14160732      1.31861828
C       4.44065752     -0.28892466      0.01467667
Cl      5.79381500     -0.81718566     -0.92367657
C       3.13091501     -0.28061100     -0.48756218
Cl      2.79496902     -0.80843596     -2.11299286
H      -2.65760895     -1.98263943      2.66349951
H       0.70989326     -0.19050068     -1.18211861
H       1.54781514      0.94049109      2.28835286
H       3.83416262      0.91606041      3.13717162
H       5.70357498      0.13853196      1.71648252
