26
FC(F)(F)C(F)(F)C(F)(F)C(F)(F)C(F)(F)C(F)(F)C(F)(F)C(F)(F)Br
F       3.91903634     -1.94831973      1.73962487
C       3.64190280     -1.05963866      0.75247230
F       4.34995105      0.06041562      1.02496697
F       4.14089784     -1.58318684     -0.39062064
C       2.15159541     -0.78965401      0.66465296
F       1.69328971     -0.33689885      1.86450999
F       1.47068479     -1.94186938      0.41334058
C       1.87164758      0.22680483     -0.41527280
F       2.43626012      1.42252103     -0.08832678
F       2.48742696     -0.15517397     -1.57557533
C       0.39292709      0.42146630     -0.72321358
F       0.28654596      1.34267778     -1.72679503
F      -0.12380615     -0.72795712     -1.23951901
C      -0.45540102      0.86783002      0.45193449
F       0.19930439      1.86722466      1.11560042
F      -0.57759613     -0.13731760      1.35651147
C      -1.83890939      1.37519963      0.06476025
F      -2.47976547      1.77894962      1.20700676
F      -1.68576952      2.52520844     -0.66639402
C      -2.75841331      0.44080576     -0.70437841
F      -2.22539654      0.16394088     -1.92704942
F      -3.92295377      1.11485148     -0.96970711
C      -3.07553237     -0.84259887      0.04941758
F      -1.95844946     -1.59497592      0.20927166
F      -3.53905167     -0.57631425      1.29546294
Br     -4.40042524     -1.91399086     -0.90353471
