37
CCC(CC)CC1(C#N)CCCCC1
C      -3.52107237     -1.40977818     -0.02738303
C      -2.73285476     -0.63803303     -1.07741682
C      -1.51459254      0.15767831     -0.54227018
C      -1.89959626      1.22766078      0.49912512
C      -2.99863356      2.17907716      0.04189767
C      -0.42543051     -0.82804675     -0.02881607
C       0.99880900     -0.27847376      0.30659538
C       0.97105627      0.39491297      1.63030730
N       0.95917686      0.91392715      2.66846900
C       1.50667420      0.69598438     -0.78059640
C       2.98410483      1.06976455     -0.63170809
C       3.87769450     -0.16122896     -0.55667164
C       3.43496118     -1.10430088      0.55425289
C       1.96334065     -1.49538913      0.40411417
H      -4.36645629     -1.92042645     -0.50047563
H      -2.90675420     -2.17367867      0.45717355
H      -3.92524547     -0.74848675      0.74388695
H      -2.38783296     -1.34669595     -1.84125806
H      -3.41479486      0.04280720     -1.60023668
H      -1.10621805      0.68262398     -1.41547351
H      -1.02520027      1.84732493      0.71955873
H      -2.20002274      0.75520565      1.44131180
H      -2.74994393      2.63151379     -0.92321868
H      -3.12120870      2.98612015      0.77174410
H      -3.96324338      1.67177845     -0.04791894
H      -0.30678064     -1.59241348     -0.80992638
H      -0.81064851     -1.35964288      0.85198822
H       1.36701817      0.23793540     -1.76892921
H       0.92277098      1.62441945     -0.77718089
H       3.28872664      1.69011933     -1.48261416
H       3.12518167      1.68151728      0.26746592
H       4.91618345      0.14563221     -0.38887020
H       3.85264120     -0.69014710     -1.51738345
H       4.05510357     -2.00796884      0.53481922
H       3.60157488     -0.63109746      1.52917513
H       1.68023289     -2.14215991      1.24515130
H       1.87127904     -2.10803492     -0.50299781
