29
O=C(Nc1ccc(Cl)cc1)c1cc([N+](=O)[O-])ccc1O
O      -0.42271264     -2.05688633      0.20050152
C      -0.00242682     -0.90656059      0.11345018
N      -0.75987415      0.23818553     -0.05464123
C      -2.16873152      0.33476614     -0.05437268
C      -3.02606812     -0.73077899      0.23088225
C      -4.41434994     -0.54966852      0.21666219
C      -4.95028352      0.69980744     -0.07975934
Cl     -6.65544948      0.92091049     -0.09622184
C      -4.10937874      1.77221769     -0.36059177
C      -2.72286238      1.58943797     -0.34599310
C       1.47899953     -0.72266051      0.13160642
C       2.06469727      0.47297120      0.57254894
C       3.46347048      0.60630869      0.55982511
N       4.07148963      1.86606042      1.00690207
O       3.31051815      2.82100081      1.21920952
O       5.30200816      1.90004127      1.13788405
C       4.28378653     -0.44199100      0.12551062
C       3.69986573     -1.63906962     -0.28735373
C       2.31179002     -1.78050723     -0.27301936
O       1.83175702     -2.99914659     -0.67243355
H      -0.27404424      1.09614707     -0.28034585
H      -2.65019635     -1.71932073      0.47531230
H      -5.06582602     -1.39066151      0.44000005
H      -4.52336382      2.75034021     -0.59075794
H      -2.08798154      2.44348050     -0.56840382
H       1.44913410      1.28417615      0.95293937
H       5.36817551     -0.34844433      0.11113047
H       4.32357233     -2.46877195     -0.61393906
H       0.87428479     -3.04138367     -0.44624551
