37
CNP(=O)(OC)Oc1ccc(C(C)(C)C)cc1Cl
C      -5.21918578     -1.46042648     -0.91875626
N      -4.77165106     -0.19463588     -0.37081818
P      -3.26843175      0.30894678     -0.79701850
O      -2.97406328      0.35180706     -2.26648542
O      -3.09739919      1.74606411     -0.07956736
C      -3.69709558      2.85168503     -0.72431975
O      -2.26107755     -0.61642173      0.04926089
C      -0.90085735     -0.49035754      0.10043368
C      -0.18340715      0.39670700     -0.69498644
C       1.21154927      0.46940380     -0.58862215
C       1.93190602     -0.33888510      0.31160723
C       3.46438090     -0.22709691      0.39559124
C       4.10448187     -1.17717280      1.43292585
C       3.85894799      1.21230331      0.79108645
C       4.08509747     -0.56511447     -0.97707437
C       1.18974910     -1.22969919      1.10380936
C      -0.20596034     -1.30463281      0.99854032
Cl     -1.04205884     -2.42914202      2.01406671
H      -5.22283382     -1.43116469     -2.01233533
H      -4.57380411     -2.28059792     -0.59040379
H      -6.23978574     -1.67117303     -0.58620744
H      -4.85088508     -0.22876854      0.63937495
H      -3.59276368      3.72998206     -0.08237844
H      -4.76045286      2.66542756     -0.89722098
H      -3.19380411      3.04829106     -1.67468087
H      -0.67388723      1.04444263     -1.41582535
H       1.73175651      1.17646085     -1.23314283
H       3.73711346     -0.97510044      2.44583950
H       3.89939065     -2.22818390      1.19821261
H       5.19459183     -1.05966629      1.45645630
H       3.40773190      1.49572510      1.74940354
H       4.94616284      1.31049850      0.89227714
H       3.53922298      1.94941655      0.04640248
H       5.17996816     -0.52655896     -0.93608516
H       3.79866693     -1.57236422     -1.30218828
H       3.76932942      0.13471911     -1.75851961
H       1.67935719     -1.88471756      1.81885228
