37
CCN(CC)C(=O)/C(C#N)=C\c1cc(O)c(O)c([N+](=O)[O-])c1
C      -0.98097315      1.38451664     -2.04362349
C      -1.96363597      0.22851221     -1.93128556
N      -1.74607730     -0.54323386     -0.70699501
C      -2.52253685     -0.14719682      0.47375145
C      -3.90728618     -0.77630039      0.47681936
C      -0.81724206     -1.57672308     -0.75215190
O      -0.19932816     -1.88978567     -1.76910726
C      -0.52466368     -2.30567257      0.50712365
C      -1.27169050     -3.48123851      0.77757332
N      -1.88624895     -4.42920986      1.04357417
C       0.44996698     -1.88047316      1.33425032
C       1.27465784     -0.68853905      1.10732035
C       1.09033914      0.43616085      1.91653611
C       1.84334310      1.58088701      1.68266660
O       1.63329585      2.67285070      2.47793836
C       2.79221953      1.63721615      0.66223332
O       3.45580818      2.83245416      0.54227637
C       2.99141012      0.50605702     -0.13550613
N       3.98982612      0.51040399     -1.20361039
O       4.26467408     -0.56338917     -1.75346335
O       4.51550508      1.60085285     -1.48251195
C       2.23395283     -0.65786949      0.08409904
H      -1.07656064      2.06758337     -1.19340114
H      -1.16455091      1.95164008     -2.96121911
H       0.05258770      1.02397921     -2.06571628
H      -2.99297519      0.60218330     -1.94405236
H      -1.84891596     -0.42754309     -2.80151537
H      -2.60141209      0.94560323      0.48624072
H      -2.00152127     -0.43544107      1.38971492
H      -4.48754250     -0.46428739     -0.39722687
H      -4.45777391     -0.47637796      1.37382113
H      -3.84701972     -1.86868671      0.46134510
H       0.66412177     -2.41951930      2.25572670
H       0.35882935      0.43854648      2.72096420
H       2.26076385      3.35091956      2.15242792
H       4.05153455      2.79754840     -0.23859686
H       2.37511890     -1.53642805     -0.54642008
