18
CC1OC1C1OC1C
C       3.27768949      0.08971114     -0.03782282
C       1.90993648     -0.26582680     -0.49845693
O       1.30984335     -1.35712792      0.20440210
C       0.70720846     -0.06222373      0.39131113
C      -0.70720826      0.06220654     -0.14014367
O      -1.30983457      1.35711709      0.04674768
C      -1.90993453      0.26583008      0.74962221
C      -3.27769071     -0.08970326      0.28899355
H       4.01741232     -0.55788063     -0.51842454
H       3.50639973      1.12586450     -0.30506945
H       3.38741617     -0.01478349      1.04660210
H       1.78951722     -0.21451685     -1.57176571
H       0.89006699      0.42165594      1.34736207
H      -0.89007081     -0.42168543     -1.09618752
H      -1.78951580      0.21453564      1.82293170
H      -3.38741744      0.01477588     -0.79543289
H      -4.01740780      0.55790210      0.76958561
H      -3.50641029     -1.12585080      0.55625576
