12
CC(O)C(=O)O
C      -1.26034793      0.68180123      0.03825706
C      -0.29850500     -0.47687425      0.23508797
O      -0.73428676     -1.55445859     -0.59526850
C       1.14091815     -0.08395740     -0.08955679
O       1.89977621     -0.72281207     -0.80462234
O       1.56665028      1.02453829      0.54382692
H      -1.02876463      1.51812480      0.70492747
H      -2.29150521      0.36301475      0.22449272
H      -1.22142189      1.04865428     -0.99373460
H      -0.32494652     -0.82971194      1.27116450
H       0.05544402     -2.09699613     -0.78639569
H       2.49698927      1.12867704      0.25182129
