17
NNC(=O)CC(=O)NN
N      -2.77947091     -1.61404191     -1.00370651
N      -1.77770337     -1.42200958     -0.02931616
C      -0.64230840     -0.69248973     -0.35497918
O      -0.48744641     -0.14787486     -1.44829581
C       0.39884244     -0.65131183      0.73014268
C       1.08096822      0.68082212      0.90906799
O       1.36331215      1.11289111      2.02835109
N       1.44649557      1.33709443     -0.25755597
N       2.01873223      2.62796752     -0.16358579
H      -3.38468168     -0.78658995     -0.99632695
H      -2.32464828     -1.56576406     -1.92580166
H      -1.81892841     -1.98058155      0.82236728
H      -0.06132652     -0.91646763      1.68912595
H       1.16151077     -1.40389937      0.50313552
H       0.96840939      1.08230072     -1.13100883
H       3.03580970      2.51152349     -0.14860393
H       1.80243353      2.98594749      0.77699028
