26
CCC[C@H]1CCCCN1
C      -3.78303964      0.19194484     -0.30322511
C      -2.42084097      0.04501597      0.35835913
C      -1.29989194     -0.02468892     -0.68359359
C       0.09181413     -0.29808049     -0.07859771
C       1.11206881     -0.52151834     -1.20848883
C       2.51703261     -0.74788525     -0.65809964
C       2.90376529      0.37570895      0.29567579
C       1.83745145      0.57662554      1.36824632
N       0.51976878      0.81698657      0.77847268
H      -3.83044869      1.10578794     -0.90403968
H      -4.56946650      0.24317781      0.45629740
H      -3.99684058     -0.66056151     -0.95579439
H      -2.41622257     -0.86357305      0.97135014
H      -2.26780305      0.89511510      1.03156096
H      -1.53576152     -0.82514795     -1.39711913
H      -1.28060088      0.90968666     -1.26007678
H       0.02897285     -1.21237829      0.52691447
H       1.12385730      0.34605751     -1.88152562
H       0.81919840     -1.38819875     -1.81317110
H       2.55199921     -1.70752821     -0.12791884
H       3.23796111     -0.80777720     -1.48079569
H       3.86649193      0.14742848      0.76658220
H       3.03677483      1.30629008     -0.27056323
H       2.11000114      1.43893748      1.98650805
H       1.79853312     -0.29438605      2.03379741
H      -0.15477462      0.95296108      1.52995456
