65
CCC(C)C(=O)OC1CC(C)C=C2C=CC(C)C(CCC3CC(O)CC(=O)O3)C21
C       4.21115953      2.63610729      0.63207050
C       2.75642260      2.65105217      1.08518678
C       1.72806552      2.61330155     -0.05689865
C       1.81710038      3.84273726     -0.96057476
C       1.83705708      1.33362184     -0.87292825
O       2.05362347      1.27949584     -2.07635433
O       1.63326570      0.24712596     -0.07083454
C       1.66047647     -1.04358452     -0.72389282
C       3.13217172     -1.46015822     -0.82934575
C       3.28389860     -2.83126228     -1.48574224
C       4.73559991     -3.30133658     -1.38372024
C       2.34963923     -3.83239913     -0.86626097
C       1.26886235     -3.49803939     -0.14030949
C       0.47123953     -4.52747739      0.47882316
C      -0.77376771     -4.29835513      0.90452240
C      -1.52354358     -3.00562334      0.70033422
C      -2.81383403     -3.38381662     -0.04968672
C      -0.72386946     -1.89460592     -0.05940095
C      -1.15942830     -0.46264187      0.36959001
C      -2.65737353     -0.13934520      0.38868572
C      -2.92449166      1.31553418      0.81381447
C      -4.41548279      1.60453280      0.85575085
C      -4.60139314      3.07059765      1.19843223
O      -5.99081363      3.37681397      1.26314834
C      -3.91902255      3.93994590      0.16457041
C      -2.49840861      3.52803408     -0.10170548
O      -1.64012099      4.33698171     -0.43879077
O      -2.24071680      2.19908783     -0.09662060
C       0.83529249     -2.06162950      0.12440614
H       4.45752318      3.52248624      0.04075281
H       4.87239504      2.62761491      1.50485916
H       4.43500701      1.74700760      0.03431903
H       2.58602499      3.54928315      1.69242537
H       2.59571189      1.79527489      1.75231415
H       0.72366968      2.61409768      0.38592632
H       2.75585301      3.87064198     -1.52364612
H       1.00205501      3.84111450     -1.69411039
H       1.73751294      4.76397462     -0.37482388
H       1.21552388     -0.97266656     -1.72585986
H       3.57945202     -1.45690432      0.17543417
H       3.70009684     -0.71473265     -1.39990868
H       3.02849991     -2.75106712     -2.54991176
H       5.41073436     -2.57767009     -1.85271072
H       5.04481009     -3.42600037     -0.34028907
H       4.87444029     -4.26198475     -1.89177452
H       2.58324362     -4.88224163     -1.03892859
H       0.90383718     -5.51882393      0.59788425
H      -1.31026767     -5.11106394      1.39154055
H      -1.78903555     -2.63361272      1.69853769
H      -3.45671657     -2.52820308     -0.25701563
H      -2.58852865     -3.85430032     -1.01600253
H      -3.41070769     -4.09433832      0.53386602
H      -0.93865172     -1.99476971     -1.13345484
H      -0.70429186      0.24477114     -0.32805012
H      -0.74840180     -0.25061003      1.36495085
H      -3.17892750     -0.79894325      1.08913411
H      -3.06103819     -0.30163937     -0.61763689
H      -2.48497023      1.47515229      1.80727288
H      -4.88217161      1.39202428     -0.11473045
H      -4.92369137      0.97046592      1.59187057
H      -4.17993002      3.27360189      2.19016782
H      -6.40218135      3.16400313      0.40631832
H      -4.46276645      3.91593724     -0.78723612
H      -3.92831657      4.98136793      0.50667622
H       1.05259608     -1.85394216      1.18415620
