18
NC(=O)c1ccc(N)cc1
N       3.20786263      0.49311538     -0.39030122
C       2.30694940     -0.43152568     -0.84268167
O       2.67931840     -1.40627443     -1.48325838
C       0.87713025     -0.22657924     -0.48945423
C       0.36133259      1.03215555     -0.16409237
C      -0.99275926      1.16975522      0.16268605
C      -1.85523084      0.07073073      0.12351113
N      -3.17505816      0.19536193      0.56925955
C      -1.32334840     -1.18986622     -0.15743243
C       0.02735299     -1.33731416     -0.48813947
H       4.18204489      0.25442736     -0.52775700
H       2.99048312      1.11745744      0.37275758
H       0.98907004      1.91765188     -0.17097940
H      -1.37188293      2.14977344      0.44140025
H      -3.56896432      1.12232023      0.44233999
H      -3.79434310     -0.53418924      0.22919552
H      -1.95695141     -2.07250053     -0.12651259
H       0.41699410     -2.32449966     -0.72870777
