24
Cc1ccccc1N(C)C(N)=O
C      -1.51958855     -1.09686244      1.37764146
C      -1.25492129     -0.07762434      0.30285256
C      -2.33508880      0.71744856     -0.12502568
C      -2.15798922      1.72278967     -1.07447541
C      -0.89904348      1.94629470     -1.61685201
C       0.17904752      1.15585551     -1.21724416
C       0.01959950      0.13251232     -0.26628378
N       1.14477955     -0.68385720      0.06491124
C       0.99425976     -2.12642846     -0.06952493
C       2.42804857     -0.21247236      0.30178103
N       2.54926864      1.12040514      0.54129439
O       3.43187852     -0.91786081      0.36098063
H      -2.40399461     -0.82717455      1.96586387
H      -0.68524403     -1.14953001      2.08406576
H      -1.69548709     -2.08203652      0.93638218
H      -3.32773218      0.56380522      0.29455241
H      -3.00301103      2.32998063     -1.38878226
H      -0.75493337      2.72358066     -2.36266139
H       1.14504868      1.32188512     -1.69009426
H       0.09559922     -2.38826783     -0.63610335
H       1.85485072     -2.54706507     -0.60064471
H       0.95849012     -2.57254047      0.92883685
H       1.77105032      1.56297389      1.00950176
H       3.46511254      1.38418864      0.87902781
