28
C/C=C/CCC1CCCC(=O)O1
C       5.03223076     -0.38742546     -0.28285900
C       3.65133139     -0.39754514      0.28723517
C       2.59130984     -0.95073101     -0.32188227
C       1.20552683     -0.96470283      0.26116375
C       0.23004062     -0.17216706     -0.61524749
C      -1.20777800     -0.23620779     -0.08345233
C      -2.16496183      0.47640521     -1.02991683
C      -3.54746521      0.46941015     -0.40949962
C      -3.50454447      1.17435278      0.92988546
C      -2.38629599      0.71897226      1.83156831
O      -2.47245990      0.80748255      3.05265342
O      -1.23160671      0.33576708      1.23986434
H       5.71955858     -0.90015180      0.39688779
H       5.08169809     -0.88378189     -1.25714763
H       5.37615563      0.64388966     -0.40727389
H       3.52908695      0.08083543      1.25708955
H       2.71766395     -1.43347494     -1.28898219
H       0.87429517     -2.00725445      0.33717783
H       1.21307919     -0.55849516      1.27955867
H       0.55981079      0.87462848     -0.65000596
H       0.25747264     -0.55870913     -1.64196020
H      -1.50141620     -1.28902760      0.01679843
H      -1.84470939      1.51345401     -1.19015133
H      -2.18483457     -0.02096684     -2.00585972
H      -4.26438529      0.96636668     -1.07214340
H      -3.89038544     -0.56413412     -0.27736434
H      -4.45524480      1.00930397      1.44897343
H      -3.38317262      2.25390695      0.78348465
