50
CC1(C)C[C@H]1C(=O)N/C(=C\CCCCSC[C@@H](N)C(=O)O)C(=O)O
C      -6.54314574      1.16340499      1.81386099
C      -5.53234989      0.41043272      0.98803736
C      -6.14442096     -0.58675184      0.03566777
C      -4.21274376      0.05204907      1.62851219
C      -4.26052052      1.15247251      0.59073891
C      -3.66399805      0.99066225     -0.76542374
O      -4.31418784      1.30617346     -1.75087765
N      -2.38332010      0.48308830     -0.74345535
C      -1.58120208      0.27229459     -1.84402627
C      -0.42262370     -0.40908212     -1.78155584
C       0.16733999     -1.09861871     -0.58319077
C       1.19622362     -0.24071498      0.15852400
C       2.42366124      0.18306686     -0.66087026
C       3.24320503     -0.94435940     -1.29360917
S       3.83460310     -2.20178869     -0.11292735
C       5.54417635     -1.60820589      0.18691472
C       5.68960382     -0.23255423      0.85925627
N       4.89012060     -0.10597657      2.10458181
C       7.17046762      0.00879496      1.17561030
O       7.64462469      0.26039684      2.27345788
O       7.96363751     -0.03198219      0.08712397
C      -1.91973708      0.84735425     -3.17677584
O      -2.00122725      0.23706426     -4.22809346
O      -2.02032674      2.18858651     -3.11369946
H      -6.06635167      1.86644218      2.50550953
H      -7.14579089      0.46771129      2.40701240
H      -7.21436528      1.73470101      1.16423192
H      -5.38850124     -1.17963523     -0.48999110
H      -6.75454314     -0.07167236     -0.71343836
H      -6.78870711     -1.28484960      0.58062888
H      -3.77197885     -0.90564032      1.37276073
H      -4.04424293      0.33889053      2.66133875
H      -4.17152933      2.17356493      0.95165448
H      -2.02669826      0.19498930      0.15576456
H       0.16268923     -0.51054642     -2.69644220
H      -0.62079446     -1.38979350      0.12103247
H       0.61762250     -2.04282065     -0.91026590
H       0.70277684      0.66900388      0.52549440
H       1.52120965     -0.78110769      1.05546829
H       3.06764990      0.79096515     -0.01638671
H       2.10039436      0.85808186     -1.46325739
H       2.63279138     -1.46608484     -2.03790523
H       4.09501495     -0.52515248     -1.83951062
H       6.07190703     -1.62357057     -0.77357259
H       6.02756059     -2.37132835      0.80935222
H       5.37948640      0.56862107      0.18018667
H       5.08462464     -0.91132193      2.70222421
H       5.24160073      0.69775415      2.63123805
H       8.85911674      0.17150128      0.43364748
H      -2.33880165      2.43549036     -4.00475404
