32
CN(C)C(=O)c1ccccc1C(=O)N(C)C
C       2.50600116     -1.97154533      0.86703299
N       1.91432101     -0.91041673      0.07133728
C       2.00771223     -1.07060756     -1.37504934
C       1.28628335      0.14383783      0.72390672
O       1.29272110      0.30765608      1.94227578
C       0.57490321      1.15946991     -0.07018818
C       1.13034797      2.44187438     -0.15207224
C       0.47863307      3.43429178     -0.88717478
C      -0.72647313      3.15103778     -1.53418627
C      -1.29294188      1.87841743     -1.43645850
C      -0.65196157      0.88808871     -0.68268219
C      -1.27497528     -0.44428359     -0.61343747
O      -1.26258006     -1.10854797     -1.64779699
N      -1.84752319     -0.86449103      0.58127849
C      -1.96529141     -0.05655479      1.78949485
C      -2.34808173     -2.22453251      0.67582603
H       2.37537006     -1.80698889      1.93958109
H       3.57592897     -2.02388992      0.64505352
H       2.03071063     -2.91940854      0.59722260
H       1.40243469     -1.93174655     -1.67161362
H       1.67413355     -0.18606001     -1.91918408
H       3.05304068     -1.25861719     -1.63891922
H       2.06664112      2.66419544      0.35497770
H       0.91180339      4.42965919     -0.95738118
H      -1.22619105      3.92387136     -2.11412786
H      -2.22927816      1.65723336     -1.94392609
H      -1.31171452     -0.47872775      2.55792108
H      -3.00198846     -0.09787303      2.13768792
H      -1.70437280      0.98950296      1.62376254
H      -1.81777211     -2.73850115      1.48313720
H      -3.41728108     -2.19152936      0.90492003
H      -2.20255976     -2.78481429     -0.25121783
