63
CC(C)(C)CC(C)(C)CC(=O)[O-].CC(C)(C)CC(C)(C)CC(=O)[O-].[Ba+2]
C      -2.77360769     -0.09104850     -0.77222807
C      -1.49800628      0.02816056      0.12067483
C      -1.71790358     -1.06650971      1.15199920
C      -1.61580025      1.39420099      0.71310251
C      -0.41484359     -0.21616640     -0.83430640
C       0.99859003     -0.22206067     -0.50170050
C       1.73106466     -0.53364690     -1.83936955
C       1.49406907     -1.22399855      0.47559268
C       1.53721845      1.14561751     -0.13378782
C       2.99919001      1.11019103      0.19185211
O       3.51615314      2.20170627      0.53439129
O       3.79222435     -0.00495313      0.14237779
C      -1.89859533     -1.01574668      1.11721774
C      -1.57975049     -0.08239489      0.04003744
C      -2.58116322     -0.43689354     -1.09709863
C      -1.91557691      1.36833008      0.34869143
C      -0.28437681     -0.11993667     -0.63648858
C       0.98720346      0.07194836      0.01663402
C       1.22022944     -0.97583165      1.08470022
C       1.35036852      1.43944474      0.49849893
C       2.08112660     -0.22696444     -1.03907803
C       3.42976254     -0.05480915     -0.45743020
O       3.96299852      1.08290424     -0.32232597
O       4.18969133     -1.13626484     -0.02542919
Ba      0.00000000      0.00000000      0.00000000
H      -3.65768308     -0.25898717     -0.12366630
H      -2.89977575      0.82439833     -1.34887517
H      -2.66807166     -0.93574716     -1.46597910
H      -1.11124304     -0.92271418      2.06946529
H      -2.78339777     -1.02823495      1.54105938
H      -1.64706041     -2.05479468      0.68701762
H      -2.72063278      1.62449720      0.81654989
H      -1.24708770      2.18091043      0.03146516
H      -1.10717616      1.52115416      1.68484430
H      -0.55780010      0.56262545     -1.65370096
H      -0.70744168     -1.16239248     -1.39756946
H       2.68357840     -1.03291405     -1.64287857
H       1.81482424      0.38547839     -2.44728096
H       1.10954522     -1.24293549     -2.42996853
H       2.35409732     -1.81331805      0.05879307
H       1.92003996     -0.69402206      1.35518195
H       0.71934721     -1.89463245      0.89491413
H       1.47557836      1.75336776     -1.08232529
H       0.98201110      1.66676851      0.64185519
H      -1.76192058     -0.67054388      2.15146868
H      -1.34256040     -1.96536041      1.00220204
H      -2.98311120     -1.31885730      1.03926665
H      -2.62168608     -1.53687561     -1.18711434
H      -2.29194279      0.07548656     -2.01200330
H      -3.57098111     -0.12342845     -0.69459771
H      -1.36423713      2.07794497     -0.30176651
H      -3.00067156      1.58060315      0.15687007
H      -1.74319602      1.63748615      1.38970222
H      -0.36306966      0.62255371     -1.49522959
H      -0.25300868     -1.09991636     -1.21102346
H       0.99702549     -1.96619053      0.59749106
H       2.30293613     -1.04968013      1.34330292
H       0.58012140     -0.89548715      1.95922439
H       2.22033269      1.29754292      1.20810766
H       1.75481506      2.06016499     -0.32046368
H       0.60172281      1.96989519      1.06353979
H       1.92142980     -1.19492161     -1.50558331
H       1.95608415      0.58579824     -1.79092433
