36
Cc1cc(=O)oc2c3c4c(cc12)CCCN4CCC3
C       4.21667951      1.03581988      0.45613850
C       3.34005813     -0.17550305      0.33254218
C       3.85541629     -1.41285563      0.36135792
C       3.04125820     -2.63019088      0.24476955
O       3.56220603     -3.73897517      0.28264173
O       1.67884554     -2.45337484      0.09443417
C       1.09197208     -1.16662669      0.05444865
C      -0.30631232     -1.10802113     -0.10305808
C      -0.95240305      0.14468108     -0.10808191
C      -0.15609146      1.30605281     -0.01098451
C       1.24182702      1.21239647      0.13913756
C       1.88583162     -0.02572999      0.17482860
C      -0.78371469      2.67918361     -0.00742276
C      -2.20344190      2.65988381     -0.55143760
C      -2.96884047      1.51333081      0.08647810
N      -2.34319462      0.24027302     -0.26639470
C      -3.12360993     -0.96619838      0.00331199
C      -2.51162932     -2.14809164     -0.72689465
C      -1.10205040     -2.38676831     -0.20730550
H       5.27305110      0.76497826      0.56380579
H       4.13488117      1.66806882     -0.43440614
H       3.94340115      1.62581664      1.33744780
H       4.91867932     -1.59095736      0.47475224
H       1.81104981      2.13430540      0.22921538
H      -0.78956954      3.05060640      1.02494703
H      -0.18177651      3.37127304     -0.60810802
H      -2.18337447      2.53215967     -1.64157104
H      -2.69730321      3.61544722     -0.34411667
H      -3.01039397      1.62715210      1.17730630
H      -4.00117865      1.53137681     -0.28233714
H      -3.17389567     -1.15353848      1.08357106
H      -4.15174191     -0.82743220     -0.35131977
H      -2.48090696     -1.94267359     -1.80489729
H      -3.12078609     -3.04730684     -0.58414133
H      -1.15062326     -2.84308408      0.78927635
H      -0.60231855     -3.09547759     -0.87793380
