39
CCCCCCCC(=O)OCn1c(=O)[nH]cc(F)c1=O
C       6.79039331     -0.51244832      0.50647068
C       5.81362149     -0.17484841     -0.60938565
C       4.35797496     -0.51077653     -0.27359682
C       3.78253539      0.35234913      0.85246742
C       2.32853927      0.01210158      1.19634437
C       1.34061277      0.35500793      0.07971229
C      -0.10156912      0.10914029      0.52245527
C      -1.09128111      0.43851845     -0.57007989
O      -0.81096105      0.86037093     -1.68249017
O      -2.35385575      0.19298932     -0.12640228
C      -3.35419283      0.48764003     -1.10330105
N      -4.64253823      0.19124131     -0.51916956
C      -5.13988090     -1.09400035     -0.66436311
O      -4.57711071     -1.99712242     -1.27803723
N      -6.35371070     -1.33700106     -0.06780623
C      -7.05429929     -0.40906861      0.64698613
C      -6.57467248      0.82161552      0.80610532
F      -7.23264913      1.76390789      1.50604535
C      -5.27261210      1.19501174      0.20628034
O      -4.81969945      2.32656239      0.36286978
H       6.69737967     -1.56084171      0.80684311
H       7.81827926     -0.34746376      0.16755097
H       6.62868421      0.11633009      1.38665353
H       5.90277312      0.88752552     -0.86443932
H       6.10140030     -0.74038995     -1.50382965
H       3.76673666     -0.36734466     -1.18482182
H       4.27769227     -1.57134379     -0.00633126
H       3.85837084      1.41277823      0.58341579
H       4.37846131      0.21254815      1.76139829
H       2.24928056     -1.05240598      1.44837741
H       2.05314080      0.57133625      2.09930916
H       1.46221219      1.40531453     -0.21279119
H       1.55011480     -0.24871227     -0.81059758
H      -0.33402084      0.73360463      1.39231356
H      -0.23015261     -0.94471978      0.79367803
H      -3.30433083      1.54736466     -1.38035744
H      -3.19616311     -0.12802973     -1.99666987
H      -6.71271606     -2.27934548     -0.18193669
H      -8.00178688     -0.71739574      1.07399129
