56
CN(C)[C@@H]1C(=O)/C(=C(\N)O)C(=O)[C@@]2(O)C(=O)C3=C(O)c4c(O)cccc4[C@@](C)(O)[C@H]3C[C@@H]12
C      -3.31338834     -1.83329971     -2.69545457
N      -2.89147920     -2.30502697     -1.37470114
C      -3.88748265     -3.22622444     -0.82240235
C      -2.52070466     -1.22040175     -0.42592688
C      -3.62127386     -0.16141082     -0.17216927
O      -4.82312873     -0.34992986     -0.36391698
C      -3.15047550      1.11704040      0.44230875
C      -3.90078461      1.75701011      1.36185308
N      -5.12437065      1.34923921      1.82148166
O      -3.51144595      2.93243005      1.96173738
C      -1.81319059      1.62638280      0.04266460
O      -1.31265326      2.60466544      0.59566025
C      -1.14196048      0.86657362     -1.09292155
O      -1.94053139      1.09147947     -2.26440123
C       0.25551818      1.39644131     -1.39066027
O       0.41308681      2.29514467     -2.22710372
C       1.42571974      0.86025977     -0.63680115
C       2.55866010      1.59006942     -0.60033015
O       2.70651866      2.82056023     -1.21889291
C       3.77449438      1.07718238      0.07609235
C       5.04815207      1.65087402     -0.12642962
O       5.26037163      2.72022107     -0.95678914
C       6.18429612      1.16232914      0.51089557
C       6.07254648      0.09486686      1.38789595
C       4.82557416     -0.48568411      1.61828570
C       3.66540803     -0.02273245      0.96099224
C       2.28802160     -0.62759952      1.24414521
C       2.35432490     -2.09127351      1.72247731
O       1.69175607      0.11323955      2.32224960
C       1.33996832     -0.51287911     -0.00492368
C      -0.11021613     -0.93000596      0.33425464
C      -1.11749121     -0.63235636     -0.79248402
H      -3.48856280     -2.68740394     -3.36094479
H      -2.53048244     -1.24065295     -3.17620763
H      -4.23288163     -1.24069711     -2.66813044
H      -4.01871986     -4.08410934     -1.49168584
H      -3.54817091     -3.63666126      0.13472086
H      -4.86883105     -2.76725957     -0.67455227
H      -2.41204132     -1.70812726      0.55429979
H      -5.63094123      0.77023320      1.14507374
H      -5.67213943      2.14509970      2.14043713
H      -2.60682020      3.16679132      1.66406340
H      -1.64623678      1.94808788     -2.64473234
H       1.89027559      3.00650275     -1.73854501
H       4.37455132      3.03018778     -1.24049285
H       7.14983832      1.62591755      0.32779626
H       6.95490268     -0.28128205      1.89980512
H       4.78650519     -1.30396161      2.33190297
H       2.83394374     -2.73739176      0.98001177
H       1.36211581     -2.49464098      1.94562125
H       2.89398292     -2.18456606      2.67145197
H       2.33852252      0.76843001      2.64150772
H       1.70387162     -1.21376518     -0.77240119
H      -0.13073089     -2.01032069      0.52085852
H      -0.44586836     -0.44655845      1.25968080
H      -0.73992289     -1.15103694     -1.68622461
