53
COC(=O)C1=CO[C@@H](O[C@@H]2O[C@H](CO)[C@@H](O)[C@H](O)[C@H]2O)[C@H]2[C@@H]1C[C@H](O)[C@@H]2C
C       6.45711409      1.60831458     -1.31712335
O       5.16913824      1.05239030     -1.04557814
C       4.14262812      1.70247036     -1.64355051
O       4.24626749      2.69782273     -2.34608199
C       2.85559137      1.02562032     -1.33412981
C       1.76667760      1.47080481     -1.97855695
O       0.50177797      0.96072413     -1.85687400
C       0.29217875      0.15054619     -0.69364460
O      -0.91711462     -0.59479193     -0.85095665
C      -2.06986002      0.18539830     -0.52784069
O      -2.11865771      0.40510463      0.87717611
C      -3.29305720      1.11727145      1.30481666
C      -3.20514716      1.31749673      2.82606774
O      -3.20073715      0.06498426      3.51114020
C      -4.57847527      0.37657445      0.90555955
O      -5.73534227      1.16679103      1.20799115
C      -4.56731739      0.08969917     -0.59698689
O      -5.71826793     -0.70533423     -0.93579364
C      -3.28625219     -0.63222035     -0.99385321
O      -3.28508986     -0.81764043     -2.42093959
C       1.42175993     -0.86997642     -0.46355304
C       2.79627430     -0.17691911     -0.43976047
C       3.02668471      0.10330002      1.04784929
C       2.54811828     -1.18743601      1.70347694
O       3.56696140     -2.16809529      1.55680413
C       1.27208238     -1.55426128      0.92545508
C       0.99871451     -3.04853676      0.81144231
H       6.73793163      1.40369484     -2.35592526
H       6.47701601      2.68603418     -1.11718415
H       7.18160689      1.12370623     -0.65721655
H       1.77744525      2.27726443     -2.70881521
H       0.21697317      0.82180725      0.17408746
H      -2.02261015      1.14118947     -1.06439883
H      -3.27798873      2.11439554      0.84298004
H      -2.26913913      1.83177646      3.07509254
H      -4.04595079      1.91266946      3.19633219
H      -3.10844977      0.25687503      4.46139871
H      -4.67439055     -0.56997358      1.45132286
H      -6.48255035      0.67631866      0.80816219
H      -4.67759914      1.02368790     -1.16495555
H      -5.55388326     -1.00976831     -1.85429094
H      -3.27028312     -1.63775980     -0.55074128
H      -2.38780193     -1.14124586     -2.63721833
H       1.40059247     -1.61066025     -1.27576579
H       3.53890315     -0.91033940     -0.78543382
H       4.07966744      0.30709130      1.26291053
H       2.42625668      0.95625029      1.38871305
H       2.35773110     -1.04699370      2.77173513
H       3.30211347     -2.94756118      2.07724022
H       0.42475695     -1.10249069      1.46050421
H       0.92568304     -3.50425034      1.80376321
H       0.05252668     -3.22427404      0.29225634
H       1.78479263     -3.56754557      0.25051596
