49
COCOc1ccc2c3c1OC1C(O)CCC4C(C2)N(C)CCC341
C       6.05985300     -0.01985953     -0.21871062
O       5.81884616     -0.36016889      1.14018389
C       4.54036300      0.10413221      1.58167503
O       3.48121463     -0.51609817      0.86359885
C       2.22176181     -0.05743970      1.10819635
C       1.82515560      0.74990903      2.18752019
C       0.48842781      1.19743903      2.32216515
C      -0.48353950      0.81124259      1.40118140
C      -0.07188213     -0.02725216      0.38539182
C       1.24110861     -0.41968730      0.20554779
O       1.40519445     -1.11977016     -0.97229189
C       0.17731695     -0.81009043     -1.72659575
C       0.45649480      0.42658778     -2.62445597
O       1.13390861      0.04264699     -3.82776959
C      -0.80704852      1.19365820     -3.00858206
C      -1.60762165      1.60561559     -1.77596027
C      -2.07593188      0.35789690     -1.02124070
C      -2.83062758      0.65149722      0.30898031
C      -1.90452541      1.31262085      1.39485450
N      -3.47802558     -0.62591911      0.70580759
C      -4.42942692     -0.47327673      1.80295138
C      -2.53122907     -1.71633215      0.97437019
C      -1.54177230     -1.93140413     -0.18270389
C      -0.93359716     -0.60304471     -0.68224620
H       5.99686343      1.06307584     -0.36329418
H       7.07078053     -0.34592291     -0.47825433
H       5.35395773     -0.53146461     -0.87971039
H       4.50774522      1.19636222      1.47860773
H       4.46888221     -0.16132275      2.64199349
H       2.53498183      1.06698941      2.94585193
H       0.22857806      1.85317621      3.15047404
H      -0.03481866     -1.68155756     -2.35794716
H       1.14123282      1.11453991     -2.11442088
H       0.62909142     -0.67151204     -4.25132799
H      -0.53111837      2.08421557     -3.58652282
H      -1.42609280      0.58535386     -3.68052164
H      -0.99808810      2.26092810     -1.14416074
H      -2.47964543      2.19241302     -2.08795278
H      -2.77022235     -0.15515897     -1.70550909
H      -3.63649069      1.36364204      0.08583949
H      -1.86578219      2.38951526      1.18350486
H      -2.33516571      1.20995694      2.39581019
H      -5.01329690     -1.39234298      1.92710465
H      -5.14876512      0.32416531      1.58697166
H      -3.94446603     -0.25380282      2.75936287
H      -3.08436030     -2.65311881      1.11787704
H      -1.98268559     -1.53893504      1.90766675
H      -2.06997827     -2.41509179     -1.01554260
H      -0.76555448     -2.63622706      0.14223239
