30
C#CC(C)(O)CC/C=C(\C)CC
C       4.27028414      1.62390234     -0.07581455
C       3.60916945      0.68600295      0.28008179
C       2.80217269     -0.46712509      0.72556515
C       2.92690393     -1.62202248     -0.26749012
O       3.34280377     -0.93382343      1.96675863
C       1.33870731     -0.06321436      0.98725034
C       0.55878322      0.37955085     -0.25410531
C      -0.83514175      0.81569751      0.11072601
C      -1.97851765      0.11727347     -0.03996532
C      -2.04984032     -1.29612734     -0.55444439
C      -3.30696493      0.72898257      0.35933453
C      -4.19631757      1.03076281     -0.83890726
H       4.86169858      2.45187324     -0.39306993
H       2.62798230     -1.33604587     -1.28119307
H       2.31717627     -2.47596322      0.04925232
H       3.96169917     -1.98310305     -0.31776864
H       3.41817375     -0.16003842      2.55084250
H       1.31611043      0.73923735      1.73910783
H       0.81823451     -0.90814314      1.46041948
H       1.05753965      1.22886818     -0.73576466
H       0.53384113     -0.41711694     -1.00289492
H      -0.89248773      1.82470957      0.51969819
H      -2.47074061     -1.31406599     -1.56437728
H      -1.07563803     -1.79071338     -0.58471845
H      -2.68694263     -1.90421967      0.09683944
H      -3.82854691      0.04983216      1.04450303
H      -3.15071178      1.66007821      0.91829550
H      -5.12188658      1.51285501     -0.50785096
H      -4.47085256      0.11709770     -1.37576741
H      -3.69669125      1.70499847     -1.54253065
