8
O=[As](O)(O)O
O      -0.32276564     -0.50212070      2.00741955
As     -0.08378350     -0.21887820      0.39261808
O      -1.47542197     -0.98922346     -0.55384046
O      -0.11706337      1.57680727      0.11479037
O       1.46057934     -1.01570482     -0.10154059
H      -2.14603795     -0.29502772     -0.79289557
H       0.62341467      1.92930472     -0.41362911
H       2.06107842     -0.48515710     -0.65292227
