39
COCCCNc1nc(NC(C)C)nc(SC)n1
C       3.84068255     -1.90259285      1.55229093
O       3.50374087     -1.17533405      0.37748960
C       4.29274514      0.00714208      0.24467717
C       3.91616793      0.74382667     -1.04003238
C       2.45570158      1.20410940     -1.05304012
N       1.57526164      0.06778583     -1.25868900
C       0.22828760      0.31251207     -1.03315661
N      -0.46399452     -0.69082931     -0.51251738
C      -1.75461624     -0.46934444     -0.30715067
N      -2.46250066     -1.53417806      0.22613087
C      -3.60072254     -1.23349598      1.08325299
C      -4.42566607     -2.51147980      1.24088506
C      -3.13395476     -0.73912946      2.45241461
N      -2.36343967      0.67355054     -0.57356248
C      -1.58739041      1.61245614     -1.09806000
S      -2.37144924      3.16983144     -1.45425712
C      -1.32071793      3.73211835     -2.81486773
N      -0.28797075      1.49281266     -1.33796456
H       4.88685047     -2.22135044      1.51838044
H       3.65960353     -1.29431645      2.44362799
H       3.20552364     -2.79107621      1.60043133
H       5.35324411     -0.26717329      0.20606120
H       4.12984626      0.65591721      1.11319766
H       4.10139836      0.09246482     -1.90304882
H       4.56568240      1.62111294     -1.13982020
H       2.22743813      1.72243098     -0.11285302
H       2.32423057      1.91914010     -1.87433386
H       1.83341874     -0.75188581     -0.70531930
H      -1.78881494     -2.19951087      0.58844396
H      -4.25203046     -0.47957807      0.62389484
H      -3.83739560     -3.31384109      1.70051330
H      -5.30648469     -2.33313537      1.86654146
H      -4.77107345     -2.87255782      0.26576683
H      -3.98902572     -0.55869182      3.11240921
H      -2.47784438     -1.47037503      2.93790818
H      -2.57582245      0.19928578      2.36774663
H      -1.73185135      4.66035326     -3.22117845
H      -1.29272961      2.98881212     -3.61665931
H      -0.30432810      3.93421382     -2.46555326
