43
C[C@H](NC(=O)[C@H](C)NC(=O)[C@@H](N)CCP(C)(=O)O)C(=O)O
C      -3.63313316     -2.10663950      2.71661412
C      -2.70529171     -2.01079187      1.51585972
N      -2.52134805     -0.61413530      1.12158606
C      -1.32844743     -0.17675580      0.57822318
O      -0.31356181     -0.87619198      0.57214685
C      -1.39641120      1.24431371     -0.03808272
C      -2.13776360      1.20014418     -1.36884405
N      -0.05579162      1.79197459     -0.22004069
C       0.61602908      2.30765589      0.86370764
O       0.06427988      2.45422957      1.95771275
C       2.08508268      2.76599297      0.64175383
N       2.74207389      2.90946183      1.96491433
C       2.96743064      1.88547843     -0.24952854
C       2.96714274      0.39500071      0.10370142
P       2.31172537     -0.61479452     -1.22604301
C       3.67649166     -1.18863968     -2.20056748
O       1.22201674      0.06749492     -2.00167844
O       1.77542203     -1.93457632     -0.47695556
C      -3.30979728     -2.76391403      0.33248575
O      -3.94920397     -2.26926165     -0.58491488
O      -3.11329994     -4.09501440      0.39221672
H      -4.61465087     -1.66793261      2.50016648
H      -3.21182582     -1.57275425      3.57540503
H      -3.79326108     -3.15031927      3.00748186
H      -1.72935634     -2.45193672      1.74721889
H      -3.36178913     -0.11852322      0.84621678
H      -1.94215428      1.88997205      0.66029942
H      -1.65087382      0.51397092     -2.07062611
H      -3.17003668      0.85901927     -1.23936521
H      -2.16313229      2.19129626     -1.83320150
H       0.47770826      1.37706074     -0.98671278
H       2.03255340      3.76667253      0.19591712
H       2.15094608      3.54007555      2.51775062
H       2.65190401      2.02238223      2.46464843
H       4.00116448      2.25430478     -0.19583355
H       2.67161104      2.03179855     -1.29479802
H       2.37765725      0.20537002      1.00624056
H       3.98737470      0.06387471      0.32520486
H       4.15219611     -0.35423197     -2.72340878
H       4.43119540     -1.67219116     -1.57389154
H       3.33968403     -1.91343159     -2.94794328
H       0.93604844     -1.74488385      0.01996316
H      -3.53660783     -4.44062475     -0.42248965
