42
CC(=O)c1cc(C(C)(C)C)cc2c1CCC2(C)C
C       0.33557648      4.17990080      0.33557885
C      -0.74656446      3.21289755     -0.07140500
O      -1.85861421      3.61427287     -0.40584130
C      -0.43115588      1.75505144     -0.07981944
C       0.88821029      1.30373941     -0.26328275
C       1.22052475     -0.07551974     -0.30201454
C       2.68505202     -0.50633842     -0.51332234
C       2.89413455     -2.03784451     -0.50553526
C       3.56685565      0.07744204      0.61202587
C       3.18679587      0.01622625     -1.87654290
C       0.17684107     -1.00521478     -0.15756646
C      -1.13007289     -0.56344603      0.02818799
C      -1.43284650      0.80492037      0.07218401
C      -2.90777850      1.01271305      0.25119764
C      -3.34939181     -0.35882372      0.77877996
C      -2.38222736     -1.40279276      0.16990942
C      -2.21433139     -2.59926163      1.11063107
C      -2.86693634     -1.87563954     -1.20719793
H       0.93839056      3.77162343      1.15133797
H      -0.12869363      5.10018910      0.70335440
H       0.96549423      4.41585905     -0.52557778
H       1.68151063      2.03388765     -0.40405401
H       3.95100431     -2.29297938     -0.64926054
H       2.33410458     -2.52622797     -1.31151423
H       2.58167026     -2.48266609      0.44647581
H       4.60873985     -0.24695955      0.50621507
H       3.21449340     -0.24830247      1.59793180
H       3.57232248      1.17283137      0.61023093
H       2.56184412     -0.35745952     -2.69634252
H       4.21683955     -0.30630905     -2.06855710
H       3.17887322      1.11035027     -1.92996010
H       0.35954297     -2.07428296     -0.19713606
H      -3.37954681      1.23872230     -0.71049873
H      -3.14095291      1.79446203      0.97954499
H      -4.40129432     -0.56380887      0.55146721
H      -3.25759680     -0.35332058      1.87467911
H      -1.81303104     -2.29300072      2.08372714
H      -1.52646974     -3.34422412      0.69510017
H      -3.17512418     -3.09616848      1.28565647
H      -3.81963514     -2.41052574     -1.12413568
H      -3.01532885     -1.03941518     -1.90016556
H      -2.14122806     -2.55455720     -1.67013633
