22
CC(=O)NCCNC(C)=O
C      -3.07608126      0.73637351      1.01320154
C      -2.45167438      0.59136160     -0.34807969
O      -2.97745597      1.04230825     -1.36110674
N      -1.25086912     -0.07190738     -0.34940033
C      -0.46340006     -0.20498074     -1.55814290
C       0.80598134     -1.03917695     -1.34901413
N       1.82793838     -0.35784484     -0.56501000
C       1.73480333     -0.19218068      0.79592840
C       2.89945953      0.53202872      1.41471474
O       0.77115519     -0.56804298      1.45793736
H      -2.97645941      1.77348235      1.34374236
H      -4.13430377      0.46781237      0.95157870
H      -2.59947131      0.08097009      1.74755888
H      -0.77758559     -0.24362158      0.53997585
H      -0.21287803      0.80210916     -1.91075661
H      -1.09854970     -0.67804714     -2.31545145
H       0.56474381     -1.98444003     -0.84964531
H       1.25991677     -1.26668088     -2.31897858
H       2.59715323      0.07368511     -1.06148290
H       3.17995548      0.02990437      2.34476718
H       2.60814419      1.56423630      1.62544639
H       3.76947735      0.53355603      0.75221725
