32
O=C1CCOc2nc(COc3ccccc3)ccc21
O      -4.87257922      0.25090472     -2.30857336
C      -4.49758588      0.03372334     -1.16126645
C      -5.45598830     -0.17583792     -0.02248273
C      -4.77015246      0.23980139      1.26260701
O      -3.58197044     -0.52152395      1.48010809
C      -2.68078467     -0.37232767      0.45666296
N      -1.39383685     -0.55045840      0.82357563
C      -0.43810897     -0.41264576     -0.13379180
C       0.99915857     -0.63449516      0.28978896
O       1.83656797      0.36887925     -0.28908909
C       3.17708333      0.28036234     -0.03306159
C       3.79984356     -0.67210889      0.77511445
C       5.18746459     -0.64548495      0.94885155
C       5.95656546      0.33108670      0.31837341
C       5.33974664      1.28506640     -0.48672520
C       3.95495520      1.25806309     -0.65963737
C      -0.75176209     -0.13165127     -1.46521736
C      -2.08650871      0.03242153     -1.82625978
C      -3.06615668     -0.09242189     -0.84580707
H      -6.35059220      0.43293362     -0.18440586
H      -5.73111033     -1.23557825     -0.00317980
H      -5.43695196      0.05526779      2.11158920
H      -4.52608857      1.31064190      1.27026529
H       1.05754991     -0.58081574      1.38367646
H       1.29988286     -1.63165614     -0.05418491
H       3.24035532     -1.44670786      1.28875662
H       5.66835939     -1.38852999      1.58033137
H       7.03447801      0.34949380      0.45660443
H       5.93348189      2.05065073     -0.97889971
H       3.47764933      2.00656902     -1.28734764
H       0.03255192     -0.04062450     -2.21179095
H      -2.35551659      0.24700276     -2.85743794
