42
CC(O)CN(CC(C)O)C(=O)COC(=O)c1ccccc1
C      -2.51740964     -3.09220698     -0.51093276
C      -2.76920640     -1.59008353     -0.48986486
O      -4.15243486     -1.39838766     -0.77872581
C      -2.42106085     -0.98487987      0.88457993
N      -1.88548675      0.38942089      0.81595598
C      -2.81495060      1.51244549      1.02132774
C      -3.44557227      2.11722926     -0.25124189
C      -2.45372207      2.54377716     -1.32261984
O      -4.37875975      1.19599508     -0.82463889
C      -0.53347365      0.68542643      0.61301467
O      -0.12357676      1.84901974      0.59947692
C       0.42541879     -0.49326525      0.41072475
O       1.73511175     -0.02878808      0.08027760
C       2.63122208     -1.01961508     -0.13264875
O       2.39263348     -2.21544152     -0.06715255
C       3.96727436     -0.45597310     -0.46552774
C       4.20845060      0.92420838     -0.51591021
C       5.48226014      1.40185697     -0.83355167
C       6.51819572      0.50739362     -1.10143607
C       6.28557843     -0.86649964     -1.05272897
C       5.01396571     -1.34833276     -0.73557637
H      -1.46211882     -3.32263212     -0.33603476
H      -2.80956828     -3.51540056     -1.47821322
H      -3.11961108     -3.60110574      0.24996147
H      -2.19086118     -1.11875122     -1.29185727
H      -4.30623758     -0.42707071     -0.76977388
H      -1.66455633     -1.60044337      1.38078968
H      -3.29857908     -0.98233734      1.54132672
H      -2.27815002      2.30917810      1.55041313
H      -3.60851666      1.17079058      1.69602259
H      -4.02760465      2.99415855      0.05670432
H      -1.73473317      3.27090539     -0.93541486
H      -1.91585461      1.68409970     -1.73522388
H      -2.98193370      3.00477039     -2.16483271
H      -4.82054756      1.66472678     -1.55837589
H       0.05285361     -1.11526387     -0.40844356
H       0.47590273     -1.05811517      1.34772591
H       3.41514484      1.63975459     -0.30949660
H       5.66526703      2.47312153     -0.87124960
H       7.50872643      0.88214157     -1.34821142
H       7.09376725     -1.56324817     -1.26131732
H       4.84275337     -2.42257848     -0.69989063
