41
CCC(CC)(C(=O)NC(N)=O)C(=O)OCc1ccccc1
C      -0.57038761      1.80605156      1.69709608
C      -0.76015196      0.29094590      1.62799179
C      -1.31649328     -0.23024039      0.27202358
C      -1.28677172     -1.78672417      0.22306986
C      -2.07836098     -2.49265759      1.31874488
C      -2.78326968      0.22697722      0.09577764
O      -3.45536173      0.63107373      1.04830573
N      -3.33203823      0.02341083     -1.16158722
C      -4.57176541      0.42109119     -1.57418014
N      -5.53622267      0.48106941     -0.62845362
O      -4.80407500      0.69878280     -2.74489693
C      -0.43040851      0.23866031     -0.88052963
O      -0.86370550      0.63699211     -1.95577535
O       0.88957399      0.08640000     -0.59937085
C       1.77025443      0.49230501     -1.65142889
C       3.18159144      0.31981729     -1.15627807
C       3.93703797     -0.80246195     -1.52297758
C       5.23920034     -0.96461486     -1.04660942
C       5.79535572     -0.01193432     -0.19489524
C       5.04971169      1.10234245      0.18484913
C       3.74778793      1.26673610     -0.29032399
H      -1.50429187      2.34208016      1.50654456
H      -0.22232017      2.08945826      2.69596155
H       0.17729975      2.15508724      0.97911532
H       0.20504481     -0.18396056      1.84628446
H      -1.42987115      0.00495275      2.44826147
H      -0.24798719     -2.13856414      0.27897470
H      -1.66366979     -2.13434767     -0.74820789
H      -1.67228642     -2.27805559      2.31118793
H      -3.13425920     -2.20800387      1.30335106
H      -2.02639400     -3.57672247      1.17211753
H      -2.67841562      0.02481364     -1.94069859
H      -5.22592588      0.67223356      0.32161099
H      -6.39313484      0.93389492     -0.91501894
H       1.59597301      1.54362821     -1.91200568
H       1.59779221     -0.12444266     -2.54169856
H       3.51652497     -1.55942532     -2.18122924
H       5.81961933     -1.83626588     -1.33808110
H       6.80890798     -0.13996326      0.17612334
H       5.48147774      1.84233815      0.85378172
H       3.17441507      2.13724187      0.02100117
