37
CN(C)C(=O)Oc1cccc([N+](C)(C)C)c1.[OH-]
C       4.70148122     -0.48834011      0.61190277
N       3.80681725      0.65751103      0.63753642
C       4.42761411      1.96265079      0.77430679
C       2.48017142      0.58364635      0.23926754
O       1.74452054      1.56072422      0.12065719
O       2.06159453     -0.72807019     -0.00597985
C       0.73979527     -0.92106115     -0.44074546
C       0.55306289     -1.71913624     -1.56226091
C      -0.73927401     -1.93970852     -2.02737914
C      -1.83525926     -1.36088130     -1.37255582
C      -1.65290708     -0.56543216     -0.23092707
N      -2.80878514      0.11111823      0.48949860
C      -4.14926477     -0.14456847     -0.18807967
C      -2.88309568     -0.42626183      1.91345528
C      -2.56342733      1.62173434      0.48701694
C      -0.34805420     -0.37901391      0.24726281
O       0.48890386      0.00000000      0.00000000
H       5.41341885     -0.40783686      1.43852842
H       5.24107142     -0.48677871     -0.33968727
H       4.15939570     -1.43150216      0.71188669
H       5.08071639      1.95931567      1.65174941
H       3.68282221      2.75411567      0.89317485
H       5.01910227      2.16466715     -0.12364034
H       1.40497947     -2.15775998     -2.07675297
H      -0.89487481     -2.55705010     -2.91108949
H      -2.81142583     -1.56273478     -1.80019744
H      -4.92505327      0.38232969      0.37790440
H      -4.36126488     -1.21839175     -0.17188174
H      -4.11751535      0.24944261     -1.20893702
H      -3.75060876      0.02675366      2.40401180
H      -1.97687490     -0.15070403      2.46004132
H      -2.99865937     -1.51411194      1.87207665
H      -2.44076139      1.95496918     -0.54853663
H      -3.43421644      2.10731293      0.93919519
H      -1.67645046      1.85362783      1.08286522
H      -0.14879061      0.20942485      1.13688280
H      -0.48890386      0.00000000      0.00000000
