45
CCCn1c(=O)c2[nH]c(C3CCC(=O)C3)nc2n(CCC)c1=O
C       4.34339306     -1.27673868     -1.96732207
C       4.62645339     -1.35651063     -0.47476877
C       3.61101657     -2.21129998      0.29282606
N       2.26963525     -1.63568259      0.31001778
C       1.33830224     -2.13866095     -0.60479207
O       1.55696673     -3.03415065     -1.41423862
C       0.08052327     -1.49349652     -0.51760782
N      -1.06386060     -1.68087658     -1.23446005
C      -1.99028106     -0.78060695     -0.75243284
C      -3.37963079     -0.67575400     -1.30357478
C      -3.59004868      0.65269518     -2.03723985
C      -3.92335699      1.67139637     -0.95089590
C      -4.60436363      0.81049859      0.07908740
O      -5.25864424      1.25611256      1.01418849
C      -4.43151240     -0.66286964     -0.19181959
N      -1.47586067     -0.05281823      0.22362042
C      -0.19911608     -0.50150435      0.36476093
N       0.73898862     -0.04750780      1.25859392
C       0.43013820      1.04530287      2.17544266
C       0.72017079      2.40884502      1.54747407
C       0.39763484      3.54254496      2.50659710
C       2.02531185     -0.59628222      1.23554958
O       2.91285841     -0.18812321      1.99059163
H       4.29014210     -2.27550075     -2.41177740
H       3.40248334     -0.75567187     -2.16781777
H       5.14259400     -0.72447094     -2.47203634
H       5.62266677     -1.79217661     -0.33319703
H       4.66225805     -0.34129607     -0.06394732
H       3.95403375     -2.31814739      1.32919769
H       3.58375159     -3.22174978     -0.13097722
H      -1.19468246     -2.35263608     -1.98051567
H      -3.55850439     -1.51946399     -1.98091532
H      -4.44628876      0.55913729     -2.71779364
H      -2.72591732      0.96494155     -2.63309293
H      -3.02425867      2.11583423     -0.51598426
H      -4.59516639      2.44875467     -1.32172169
H      -5.38708797     -1.05290591     -0.55671731
H      -4.12211509     -1.19396132      0.71212318
H      -0.62177247      0.97306207      2.47769002
H       1.02767728      0.92461534      3.08700209
H       1.77502631      2.47016120      1.25472324
H       0.13109367      2.53294716      0.63102636
H       0.99786754      3.46727436      3.41891918
H      -0.66009208      3.52858212      2.78831839
H       0.61157314      4.50815815      2.03789609
