41
Fc1ccc(C(c2ccc(F)cc2)[NH+]2CC[NH2+]CC2)cc1
F      -3.74915159     -4.01783529     -1.86872662
C      -2.98305415     -2.99072037     -1.48679722
C      -2.18666049     -3.11367500     -0.35645914
C      -1.37724267     -2.04682532      0.04399144
C      -1.35700327     -0.84650391     -0.69379023
C      -0.47894693      0.33842146     -0.30684047
C      -1.01456842      1.08970437      0.90701614
C      -0.91216598      0.58215061      2.21751576
C      -1.40376130      1.31263741      3.30306285
C      -2.00384437      2.54632688      3.09109022
F      -2.46504574      3.24342138      4.13468693
C      -2.13002661      3.06336343      1.81007296
C      -1.64214497      2.33848322      0.72024560
N       1.03075372     -0.03478580     -0.17842201
C       1.88869195      1.19402967      0.16610829
C       3.38989600      0.83050746      0.27109985
N       3.86839033      0.11248662     -0.96358537
C       3.04865355     -1.09872313     -1.32408773
C       1.54513419     -0.74826114     -1.43982468
C      -2.18727212     -0.74469954     -1.82889901
C      -2.99271388     -1.81549711     -2.22368872
H      -2.21965566     -4.04080369      0.21169142
H      -0.79158328     -2.18166750      0.94881199
H      -0.47504640      1.03827630     -1.15414811
H      -0.47419736     -0.38862631      2.43116685
H      -1.34113511      0.92582044      4.31789876
H      -2.62184126      4.02370203      1.67150202
H      -1.77930864      2.76494564     -0.27334175
H       1.05688231     -0.69235016      0.61126797
H       1.72286744      1.93000114     -0.62812750
H       1.54803420      1.59298357      1.12431882
H       3.57148502      0.15694290      1.11502944
H       4.00893494      1.72552999      0.37939044
H       3.93538318      0.76325866     -1.76497154
H       4.84929652     -0.18609808     -0.81230873
H       3.44200413     -1.47957272     -2.27078726
H       3.21864357     -1.83802471     -0.53452537
H       0.97118568     -1.66829241     -1.57213054
H       1.36896818     -0.07055231     -2.28222221
H      -2.23787136      0.17070295     -2.41828304
H      -3.64096333     -1.74018160     -3.09400053
