18
COC(=O)/C=C\C(=O)OC
C      -2.19750043      1.69564547     -0.97130062
O      -1.17928816      0.71624461     -1.17112214
C      -1.63796009     -0.55726269     -1.14661294
O      -2.80244153     -0.91842945     -1.08917056
C      -0.52399986     -1.49991353     -1.34578938
C       0.62320267     -1.50649308     -0.65338417
C       0.91035766     -0.61806311      0.49070302
O       0.07956283     -0.09788940      1.21390416
O       2.25842491     -0.51980250      0.60424627
C       2.68307826      0.31231702      1.68444554
H      -1.72032680      2.67902167     -0.93910487
H      -2.71207835      1.53025433     -0.01930767
H      -2.90801109      1.68189043     -1.80363119
H      -0.70707293     -2.24262392     -2.11339024
H       1.39749558     -2.22580566     -0.89486772
H       2.31215080      1.33357103      1.55159426
H       2.34812965     -0.10109160      2.64096864
H       3.77627687      0.33843039      1.68246072
