46
CCOc1ccccc1O[C@H](c1ccccc1)[C@H]1CNCCO1
C       2.52986374      2.28241822      2.29233983
C       3.04100887      1.29662611      1.25692305
O       1.96671294      0.98757199      0.37080244
C       2.23199396      0.14878044     -0.67993028
C       3.46183167     -0.48998555     -0.88602940
C       3.67116617     -1.29368011     -2.01188047
C       2.65825154     -1.46137196     -2.95045579
C       1.42958015     -0.83695086     -2.75545522
C       1.20337214     -0.06045510     -1.61341104
O      -0.04088980      0.51851252     -1.53860829
C      -0.82790804      0.11388804     -0.39351679
C      -1.22870228     -1.35508054     -0.51421927
C      -0.88401369     -2.26139088      0.50076489
C      -1.25113565     -3.60472337      0.40682906
C      -1.96155149     -4.05911824     -0.70234848
C      -2.30172648     -3.17296800     -1.72201979
C      -1.93639038     -1.82929800     -1.63065414
C      -2.08275304      1.04309468     -0.32703462
C      -2.99948535      0.77092184      0.89223535
N      -2.43153860      1.21732413      2.18084103
C      -2.07404012      2.64178454      2.05762818
C      -1.16242235      2.91834263      0.85493752
O      -1.74247510      2.45230106     -0.36625343
H       2.17528608      3.19915876      1.80978933
H       3.31715787      2.54183853      3.00588290
H       1.68055924      1.86031678      2.84024686
H       3.87132015      1.75520776      0.70746279
H       3.38060634      0.38952839      1.76972895
H       4.28851966     -0.37873076     -0.19252276
H       4.63200787     -1.78048296     -2.15927065
H       2.82245200     -2.07559341     -3.83144140
H       0.63594333     -0.96340952     -3.48676535
H      -0.25005811      0.25937221      0.52286340
H      -0.32167659     -1.92866328      1.37037526
H      -0.97911071     -4.29832599      1.19836621
H      -2.24423531     -5.10594989     -0.77529833
H      -2.84712940     -3.52917967     -2.59211525
H      -2.19461731     -1.15395227     -2.44395743
H      -2.67666742      0.88714153     -1.23574715
H      -3.94618340      1.30682990      0.74417321
H      -3.26087692     -0.28913289      0.96625264
H      -1.58669837      0.68187090      2.37579304
H      -2.99759847      3.22520999      1.95995922
H      -1.58180225      2.96945267      2.97929489
H      -0.17860494      2.46360979      0.99207610
H      -1.00734216      3.99733981      0.75336915
