51
COc1cc2nc(N3CCN(C(=O)c4ccco4)CC3)nc(N)c2cc1OC.Cl
C       5.71849391     -0.04319287     -2.58862754
O       5.80432273     -0.43988915     -1.22066186
C       4.64393680     -0.34558921     -0.43377951
C       3.45798985      0.11598805     -0.96608725
C       2.32282304      0.20402692     -0.18092433
N       1.14932537      0.64323024     -0.64347635
C       0.02805983      0.73408818      0.11783181
N      -1.20452131      1.20785806     -0.41360246
C      -1.23010902      1.59413563     -1.80409911
C      -2.53736639      1.29252725     -2.49511022
N      -3.55481565      0.93097183     -1.47259170
C      -4.42646035     -0.11561284     -1.68765989
O      -4.35152606     -0.72186910     -2.85918151
C      -5.43944670     -0.69103860     -0.83639270
C      -5.75217609     -0.40312925      0.46153333
C      -6.82181325     -1.24525279      0.82083990
C      -7.09989773     -1.99834413     -0.27507127
O      -6.29024732     -1.65581403     -1.20498946
C      -3.51537746      1.78856253     -0.33549932
C      -2.33593723      1.26212029      0.49610604
N       0.16687865      0.34714893      1.39845004
C       1.31259035     -0.10452677      1.93375074
N       1.41511325     -0.50107782      3.28479696
C       2.43536892     -0.18614293      1.13713790
C       3.61001851     -0.64940772      1.68663926
C       4.73096405     -0.72998303      0.88807076
O       5.93266092     -1.19678879      1.42427374
C       6.07307103     -1.59709286      2.75377405
Cl      0.68928631      0.00000000      0.00000000
H       5.07071948     -0.79238256     -3.08870329
H       6.71589393     -0.00882779     -3.03487614
H       5.25925660      0.96391145     -2.59718795
H       3.38709527      0.41719222     -1.99924307
H      -0.42285665      1.06160304     -2.34749354
H      -0.97042666      2.67391193     -1.84745711
H      -2.48046659      0.50111445     -3.23850770
H      -2.90715207      2.21018213     -2.97127850
H      -5.30378432      0.29282755      1.13603083
H      -7.28700704     -1.24923304      1.78366654
H      -7.89459194     -2.76252982     -0.31561583
H      -3.12019370      2.80963095     -0.71432078
H      -4.42210729      1.96465363      0.21099726
H      -2.16238977      1.94437610      1.34615647
H      -2.59974736      0.25920997      0.89485580
H       1.46855447      0.20393135      4.03601084
H       1.43622151     -1.50648828      3.51545394
H       3.63787016     -0.94632847      2.74540551
H       5.66977441     -2.59915085      2.96704029
H       5.54894544     -0.88082070      3.44961546
H       7.13446949     -1.57302769      3.08400094
H      -0.68928631      0.00000000      0.00000000
