21
CCC(C)(C)CO
C       2.17106224     -0.30551929     -0.08266737
C       0.94140642     -0.24228428      0.81526672
C      -0.42225550     -0.12848559      0.08047937
C      -0.68449532     -1.37606219     -0.78197890
C      -1.52721740     -0.04268132      1.15521368
C      -0.49514864      1.12207883     -0.82196884
O      -0.21382336      2.30198707     -0.08044076
H       3.07295514     -0.39690719      0.53194087
H       2.14061088     -1.17071010     -0.75051945
H       2.27727653      0.59994215     -0.68650498
H       1.06399976      0.60652332      1.50029307
H       0.93631929     -1.14051768      1.44684629
H      -1.69075931     -1.34990972     -1.21594379
H       0.02432720     -1.45063435     -1.61308419
H      -0.60376848     -2.29270492     -0.18717939
H      -1.38259798      0.82145066      1.81301213
H      -1.53590456     -0.93997916      1.78455255
H      -2.51855937      0.05007953      0.69730226
H      -1.49589374      1.22620867     -1.25699484
H       0.21990418      1.05839782     -1.64889618
H      -0.27743799      3.04972774     -0.69872825
