31
CCCCCCC(O)C(O)C(=O)O
C       4.57246852      0.14753304     -0.66216162
C       4.05387780      0.15506163      0.76753388
C       2.70054074     -0.54013284      0.93044754
C       1.55951219      0.17649005      0.20489516
C       0.21397372     -0.49715252      0.48710523
C      -0.92965895      0.21891917     -0.24076973
C      -2.29127238     -0.42221870      0.05622373
O      -2.31356712     -1.79317252     -0.38964240
C      -3.46378023      0.29776983     -0.62840716
O      -4.60782106     -0.59576464     -0.66510790
C      -3.89044929      1.53398865      0.15912323
O      -3.15324566      2.44435641      0.50165950
O      -5.22129094      1.51337809      0.43297546
H       3.93999812      0.74863646     -1.32182397
H       4.61769512     -0.87164654     -1.05870979
H       5.58200214      0.56964281     -0.69731396
H       3.98824235      1.18877706      1.12638603
H       4.78513318     -0.35571002      1.40540487
H       2.77366802     -1.57498842      0.57436244
H       2.46859094     -0.59048147      2.00157371
H       1.74133227      0.17408999     -0.87566013
H       1.52007447      1.22414553      0.52661969
H       0.01991104     -0.49091715      1.56654852
H       0.26073248     -1.54630844      0.17236679
H      -0.93524292      1.27354120      0.05343767
H      -0.73476447      0.18219106     -1.32000406
H      -2.46050052     -0.45381506      1.13918151
H      -1.74910203     -1.86653864     -1.18127266
H      -3.24518931      0.57303949     -1.66417912
H      -4.22371342     -1.49183581     -0.52829578
H      -5.57815481      0.66912230      0.05926511
