43
COc1ccc2c(c1O)C13CCN(C)C(C2)C1C=CC(=O)C3
C       5.46487709      0.64573297     -0.52400160
O       4.26180953     -0.01063520     -0.90758151
C       3.13582447      0.29040355     -0.18030591
C       3.06567198      1.18961703      0.87435339
C       1.84143908      1.41690074      1.50010347
C       0.67563329      0.74089288      1.09231572
C       0.73011758     -0.21835639      0.05162107
C       1.97210400     -0.39164221     -0.58463459
O       2.08684937     -1.22637906     -1.66603545
C      -0.56631863     -0.95215894     -0.38181718
C      -1.20703142     -0.12274030     -1.53222114
C      -1.70689697      1.25258069     -1.07907446
N      -2.54487437      1.15443657      0.11908628
C      -3.07253309      2.46207456      0.49773209
C      -1.88892508      0.44247242      1.24018725
C      -0.60801329      1.08060492      1.82073389
C      -1.53843522     -1.00734842      0.83618859
C      -2.76730616     -1.85472679      0.59840647
C      -2.80009596     -2.87319854     -0.26612379
C      -1.58888678     -3.23321545     -1.03176291
O      -1.62388138     -4.22835589     -1.75476403
C      -0.32737326     -2.40754636     -0.86276147
H       6.26186524      0.29517082     -1.18679951
H       5.37980014      1.73006376     -0.65017774
H       5.74653982      0.38609241      0.50179543
H       3.93141774      1.73976862      1.22520207
H       1.79382778      2.13888477      2.31401407
H       3.02679034     -1.18127172     -1.93065048
H      -2.05640511     -0.66470820     -1.96709958
H      -0.49068098      0.01472285     -2.35277100
H      -0.86269989      1.93471641     -0.92211471
H      -2.29436010      1.68014132     -1.90161650
H      -3.69812116      2.86495801     -0.30684635
H      -2.28557591      3.19347038      0.70788087
H      -3.71667327      2.38173604      1.38017126
H      -2.62189194      0.40053132      2.05848928
H      -0.71384055      2.16867586      1.89069672
H      -0.49228799      0.71723077      2.85165331
H      -1.02677964     -1.48030757      1.68965489
H      -3.66065514     -1.62678570      1.17495065
H      -3.68201931     -3.48103621     -0.42607712
H       0.32050259     -2.94681522     -0.16071789
H       0.14749253     -2.41465148     -1.84928185
