20
CC1=CS(=O)(=O)c2ccccc21
C      -2.47900708     -1.13136209      0.24657970
C      -1.47143448     -0.03930924      0.16047561
C      -1.73482636      1.27937172      0.21880099
S      -0.29950680      2.24907566      0.08305856
O      -0.01038378      2.89494523      1.34568952
O      -0.28761594      2.95139130     -1.18248000
C       0.73164677      0.84868508     -0.06128109
C       2.10716335      0.86196573     -0.21181876
C       2.74567752     -0.37218463     -0.30939171
C       2.00193939     -1.56343352     -0.25443402
C       0.60807286     -1.53903801     -0.10104203
C      -0.03656533     -0.31402909     -0.00300152
H      -3.49201662     -0.73242843      0.36657055
H      -2.46905744     -1.74084420     -0.66294813
H      -2.27523611     -1.78030988      1.10457357
H      -2.70027114      1.74263840      0.33501167
H       2.66179848      1.79362001     -0.25183643
H       3.82621119     -0.41615223     -0.42886112
H       2.51710090     -2.51909927     -0.33226341
H       0.05631062     -2.47350255     -0.06140193
