49
O=C1Cc2cc(CCN3CCN(c4nsc5ccccc45)CC3)c(Cl)cc2N1
O       8.38371242     -0.61592794      2.51043595
C       7.31735238     -0.28351413      2.02152182
C       5.96796685     -0.98956835      2.19921915
C       5.05348927     -0.13185814      1.37502333
C       3.69673705     -0.25629530      1.13924853
C       3.06337217      0.69867439      0.31814989
C       1.57778728      0.54596843      0.05050548
C       1.31303333     -0.22879188     -1.25465021
N      -0.08717650     -0.42903737     -1.65315846
C      -0.87298602     -1.20574558     -0.67582242
C      -2.31141200     -1.48003326     -1.17852420
N      -3.01994620     -0.22026905     -1.50033501
C      -3.64478921      0.42685268     -0.45965006
N      -3.25323770      1.60819163      0.01585933
S      -4.21272418      2.04815273      1.27822099
C      -5.25166815      0.68690592      1.22187939
C      -6.36120115      0.37837619      2.02756091
C      -7.06814833     -0.79677920      1.76267034
C      -6.68557214     -1.63478303      0.72272855
C      -5.57752114     -1.31734198     -0.06984728
C      -4.82398695     -0.14106574      0.18155101
C      -2.23589568      0.60455782     -2.44977975
C      -0.78462689      0.83797271     -1.96443055
C       3.83274282      1.74835769     -0.24840137
Cl      3.11770871      2.94089680     -1.27763002
C       5.20558958      1.86151198     -0.00012295
C       5.78117651      0.91106109      0.81150814
N       7.10889754      0.81502676      1.19564835
H       5.68243868     -0.97681797      3.25382455
H       6.02829225     -2.00533488      1.80047045
H       3.13549409     -1.07566992      1.58096428
H       1.10735168      1.53450250      0.03692486
H       1.12301032      0.02208879      0.90035075
H       1.78653761     -1.21737516     -1.18076670
H       1.83376189      0.26249302     -2.08679283
H      -0.38464366     -2.17126513     -0.49862415
H      -0.92972256     -0.68221556      0.28610240
H      -2.84776092     -2.07018922     -0.42739286
H      -2.27001942     -2.09673896     -2.08519635
H      -6.66909691      1.04064557      2.83091519
H      -7.93281480     -1.05140930      2.37138421
H      -7.25272956     -2.53948354      0.51703976
H      -5.29674708     -1.96997693     -0.89248713
H      -2.73140404      1.56480529     -2.64149289
H      -2.21005545      0.07934629     -3.41347603
H      -0.80009982      1.49670101     -1.08964634
H      -0.24290900      1.36577637     -2.75840957
H       5.79116330      2.66484305     -0.43152107
H       7.85127974      1.44377883      0.92812007
