37
O=c1c2cccc3cccc(c32)c2nc3cccc4cccc(c43)n12
O       0.41145151     -2.95004691      0.12564541
C       0.67195400     -1.74808210      0.13294259
C       2.11409271     -1.41395514      0.22866066
C       3.05857182     -2.45226158      0.30235376
C       4.41833293     -2.16743932      0.39287150
C       4.84592529     -0.84270581      0.41052286
C       3.91860700      0.20671677      0.33790961
C       4.34478903      1.54240649      0.35537101
C       3.42026188      2.58073367      0.28304241
C       2.06146235      2.29058234      0.19264013
C       1.61566534      0.95868787      0.17380375
C       2.53299106     -0.08626839      0.24569559
C       0.16040968      0.66751809      0.07680836
N      -0.64324013      1.68547728      0.01292835
C      -2.01620056      1.46583388     -0.07905717
C      -2.85855197      2.58037678     -0.14643489
C      -4.23821587      2.42391812     -0.23943120
C      -4.78428085      1.14369012     -0.26558630
C      -3.95317322      0.01506560     -0.19886081
C      -4.49245027     -1.27220187     -0.22447825
C      -3.65239842     -2.37577350     -0.15736099
C      -2.26656016     -2.20519659     -0.06406595
C      -1.67962662     -0.92930989     -0.03507986
C      -2.54525461      0.17767281     -0.10397499
N      -0.24724325     -0.68307652      0.06074629
H       2.73610600     -3.49236557      0.28939948
H       5.14199558     -2.97699984      0.44945519
H       5.91206677     -0.63533844      0.48163520
H       5.40340093      1.78520480      0.42565623
H       3.75610853      3.61471694      0.29696706
H       1.34962878      3.11222311      0.13675737
H      -2.42533836      3.57686825     -0.12551934
H      -4.88336158      3.29652432     -0.29119999
H      -5.86398467      1.03256177     -0.33846365
H      -5.56640134     -1.42653348     -0.29659198
H      -4.07022238     -3.37973105     -0.17715944
H      -1.68731696     -3.11949304     -0.01643922
