55
CN(C)[C@@H]1C(O)=C(C(N)=O)C(=O)[C@@]2(O)C(O)=C3C(=O)c4c(O)ccc(Cl)c4[C@@H](O)[C@H]3C[C@@H]12.Cl
C      -3.48603005     -0.01131495     -2.28846888
N      -3.02475767     -1.13616313     -1.55954130
C      -3.89677036     -2.25584711     -1.48428298
C      -2.30193867     -0.83832866     -0.33742468
C      -3.10319734     -0.13697940      0.64902292
O      -4.43608236     -0.53923205      0.92519215
C      -2.66381722      0.88813310      1.33418714
C      -3.52454155      1.57139443      2.33520037
N      -4.83274441      1.07567852      2.52098946
O      -3.07680366      2.55145748      2.97727669
C      -1.30631811      1.37243533      1.10433994
O      -0.66665701      1.91992103      2.01059443
C      -0.76352207      1.16532862     -0.26182227
O      -1.46599356      2.05757436     -1.10609485
C       0.65393946      1.57088921     -0.36733435
O       0.95161728      2.93546817     -0.38766741
C       1.65818090      0.73728410     -0.44373563
C       3.06128569      1.19487451     -0.54946106
O       3.27676939      2.30874577     -1.07078173
C       4.11934645      0.32842747     -0.04217800
C       5.45573425      0.71104463     -0.16632088
O       5.87805669      1.88385788     -0.70542532
C       6.45235056     -0.16552761      0.29366811
C       6.07451815     -1.36200410      0.84633799
C       4.76345757     -1.74328031      0.97169687
Cl      4.25722568     -3.25086503      1.66614414
C       3.76002134     -0.87293171      0.51526797
C       2.34614873     -1.26033774      0.68855786
O       1.86155879     -0.72105020      1.90645365
C       1.50135116     -0.73821567     -0.43784722
C       0.09728489     -1.17670684     -0.16111512
C      -0.97478406     -0.26289442     -0.71144574
Cl      0.68412222      0.00000000      0.00000000
H      -4.27149463     -0.32659632     -3.01082932
H      -3.84218755      0.79623350     -1.61666099
H      -2.65760973      0.38178393     -2.91257640
H      -4.74510909     -2.09654623     -2.17561542
H      -3.30173922     -3.17247924     -1.76981868
H      -4.20905289     -2.42298272     -0.43528268
H      -2.11070499     -1.88328393      0.10218191
H      -5.09280130     -0.27981228      0.17903411
H      -4.98186120      0.43176492      3.33457309
H      -5.56285186      1.36374556      1.86312969
H      -1.08126498      2.07301326     -2.00839427
H       0.23791159      3.63797229     -0.54762307
H       5.34685223      2.60147223     -1.06789671
H       7.49992442      0.08256364      0.22095006
H       6.81444949     -2.08276735      1.22054880
H       2.24031943     -2.36189953      0.81448714
H       2.15482723      0.21458982      2.03171870
H       1.90167181     -1.18175773     -1.38722728
H      -0.04803348     -1.17603807      0.95012542
H      -0.06410864     -2.17856447     -0.60739441
H      -0.87202552     -0.22124695     -1.84141196
H      -0.68412222      0.00000000      0.00000000
