24
Nc1ccc2ccccc2c1S(=O)(=O)O
N      -2.93173278      1.11472871     -0.85762812
C      -1.64451646      0.98096674     -0.31489680
C      -1.03941854      2.14547891      0.16528791
C       0.28382325      2.14813385      0.60040847
C       1.07030014      0.99573240      0.52013359
C       2.40488099      1.04703423      0.95757835
C       3.23458826     -0.06661789      0.87077505
C       2.73954423     -1.24471419      0.33646724
C       1.41298460     -1.30883428     -0.10032825
C       0.52678529     -0.19951625     -0.01299302
C      -0.84750795     -0.17873015     -0.42756209
S      -1.58541759     -1.67918194     -1.04067787
O      -3.03173315     -1.56249464     -0.98948754
O      -0.90682032     -2.06486998     -2.25780768
O      -1.26372689     -2.79680763      0.08032399
H      -3.49889287      1.85111103     -0.44907017
H      -3.45720754      0.23927256     -0.94880510
H      -1.59956614      3.07762479      0.20183646
H       0.70192000      3.07760211      0.98293866
H       2.81568794      1.96793392      1.36766048
H       4.26537932     -0.00895157      1.20959399
H       3.38092745     -2.11827960      0.24966621
H       1.09218262     -2.25699832     -0.52721205
H      -2.12246387     -3.15962283      0.38379829
