43
NCC(=O)NCC(=O)Nc1ccc(S(=O)(=O)Nc2nnc(S(N)(=O)=O)s2)cc1
N      -7.48513281      1.13476960      1.12564624
C      -6.68748993      0.85994439     -0.08803931
C      -5.76490192     -0.34518877      0.12421255
O      -5.24717613     -0.96839294     -0.79992025
N      -5.50131339     -0.62690666      1.44080253
C      -4.74202548     -1.78080218      1.88593518
C      -3.22112455     -1.59158133      1.78721728
O      -2.50631682     -1.74481778      2.77430263
N      -2.79441309     -1.32593588      0.49740780
C      -1.48027135     -1.12831789      0.03778513
C      -0.34873987     -1.18877787      0.85536809
C       0.92617886     -0.97927293      0.31887744
C       1.06665188     -0.69838499     -1.04200952
S       2.69157273     -0.43474045     -1.70715423
O       2.56639063     -0.25306334     -3.13729384
O       3.55935831     -1.43986179     -1.13588631
N       3.04057457      1.09625043     -1.07252731
C       4.45285229      1.20948390     -0.74874965
N       5.26928894      1.82768485     -1.57176356
N       6.55377107      1.89080655     -1.06205492
C       6.61062763      1.34528213      0.13756990
S       8.05629672      1.25133571      1.13677516
N       9.34703342      1.84602216      0.22228709
O       7.84211911      2.17770238      2.22477373
O       8.31431051     -0.15609546      1.33737775
S       5.13874879      0.73678787      0.74403489
C      -0.05169280     -0.64406520     -1.87418165
C      -1.32087157     -0.85792776     -1.32928559
H      -8.03046436      1.98285722      0.96222070
H      -8.17616250      0.38856286      1.22688876
H      -6.06464626      1.72810723     -0.32294137
H      -7.35723437      0.65066454     -0.92751768
H      -5.96397555     -0.02515416      2.12035554
H      -5.02763539     -2.65691423      1.29395329
H      -5.00777053     -1.95944476      2.93271616
H      -3.53413219     -1.27023623     -0.20509667
H      -0.42423804     -1.40416706      1.91716183
H       1.79621134     -1.04176386      0.96898236
H       2.84559376      1.76545414     -1.82043916
H       9.12273696      2.74168313     -0.21170430
H       9.67753328      1.14322440     -0.43924418
H       0.04719653     -0.44179697     -2.93840214
H      -2.18731843     -0.81301303     -1.98693789
