36
CC(=O)CCC1=C(C)CCCC1(C)C
C       4.61014414     -0.22515334     -0.97235820
C       3.51027569     -0.41248365      0.04044663
O       3.75524905     -0.83435594      1.16963914
C       2.10940177     -0.06063714     -0.42309866
C       1.07599560     -0.23342049      0.69126075
C      -0.33472894      0.16227006      0.26331166
C      -0.75155096      1.45485211      0.29327963
C       0.11180648      2.63554125      0.67220345
C      -2.16552452      1.87415259     -0.05372631
C      -3.16769293      0.73129829     -0.11642550
C      -2.56341165     -0.45913624     -0.83996184
C      -1.28598438     -0.99120568     -0.13623564
C      -1.69493258     -1.76955631      1.13472448
C      -0.63059467     -1.98208459     -1.12249259
H       5.57024042     -0.50676878     -0.53105814
H       4.42034197     -0.86072027     -1.84076190
H       4.65505608      0.82401522     -1.27458779
H       1.87363221     -0.70567590     -1.27501264
H       2.12692193      0.97585819     -0.77654045
H       1.09173148     -1.26940018      1.04842329
H       1.37213121      0.34762608      1.57413073
H      -0.28471437      3.11530706      1.57336428
H       1.15460145      2.38255855      0.87100634
H       0.11174666      3.37221233     -0.13859545
H      -2.52858833      2.60415452      0.68023557
H      -2.14035966      2.38596673     -1.02442499
H      -3.47807327      0.44778722      0.89576972
H      -4.07293808      1.06584394     -0.63628967
H      -3.31538318     -1.25430901     -0.92149107
H      -2.32525974     -0.15629300     -1.86927200
H      -2.45388861     -2.52681572      0.90618310
H      -2.10720652     -1.10773470      1.90418528
H      -0.84434982     -2.29539870      1.58209142
H      -0.28006845     -1.47004156     -2.02581625
H      -1.34605715     -2.75117263     -1.43768490
H       0.22203169     -2.50708032     -0.67938267
