17
Clc1ccc2c(Cl)ccnc2c1
Cl      4.02764348     -1.00204110      0.13542230
C       2.41814245     -0.39856872      0.06481266
C       2.19918145      0.96682343     -0.04903180
C       0.89078145      1.44387674     -0.10533241
C      -0.21204112      0.55507876     -0.04793267
C      -1.56753053      0.94935077     -0.09814179
Cl     -2.03433636      2.61169113     -0.23943044
C      -2.58972892      0.00998389     -0.03555163
C      -2.23185084     -1.31383407      0.07677952
N      -0.95327451     -1.73976337      0.12852794
C       0.03291124     -0.82977271      0.06784112
C       1.34294583     -1.28219582      0.12216435
H       3.03360369      1.66175622     -0.09428623
H       0.73706379      2.51744635     -0.19459677
H      -3.63383555      0.29809980     -0.07295949
H      -2.98313874     -2.09710285      0.13032551
H       1.52346318     -2.35082845      0.21138984
