33
CC(C(=O)O)c1cccc(C(=O)c2ccccc2)c1
C       3.60317918     -0.73007109      1.62048496
C       2.57937682      0.23411964      1.01716697
C       3.25195454      1.52122451      0.57551576
O       4.42513268      1.67546762      0.27636530
O       2.39509703      2.56343438      0.51682642
C       1.79582988     -0.40723284     -0.11516543
C       2.43453191     -0.85358258     -1.28352962
C       1.70432197     -1.45235123     -2.31165650
C       0.32378960     -1.60154097     -2.19265096
C      -0.33254707     -1.13891683     -1.04841302
C      -1.80363899     -1.31765803     -0.95634144
O      -2.31564238     -2.32322395     -1.44195410
C      -2.66894180     -0.30976683     -0.29138223
C      -3.81788332     -0.75334009      0.37413833
C      -4.66042359      0.16425283      1.00320640
C      -4.36443075      1.52642694      0.95869122
C      -3.23198323      1.97495500      0.27848196
C      -2.38610691      1.06046709     -0.35280838
C       0.40391181     -0.56107733     -0.00523017
H       3.11682672     -1.64344986      1.98031776
H       4.11828733     -0.26379328      2.46785746
H       4.37154555     -1.02278006      0.89623466
H       1.89446294      0.50582544      1.83211332
H       2.94989744      3.30592532      0.19716761
H       3.51203781     -0.74487733     -1.40172353
H       2.21279594     -1.80628526     -3.20534078
H      -0.24047229     -2.07666141     -2.99273656
H      -4.05797443     -1.81447449      0.40195017
H      -5.55036233     -0.18383602      1.52170808
H      -5.02428518      2.24067871      1.44550975
H      -3.01346848      3.03913608      0.23199461
H      -1.52411852      1.43283264     -0.90037623
H      -0.10069988     -0.23982672      0.90357822
