16
Nc1cnc2ncncc2n1
N       3.04879777      0.70008709      0.01411434
C       1.76783196      0.16419256      0.05254204
C       1.53311492     -1.19660619      0.18134330
N       0.29062351     -1.73694156      0.23940929
C      -0.74647079     -0.89709279      0.18909161
N      -1.97327547     -1.41436465      0.24955008
C      -2.99923445     -0.55943628      0.20111715
N      -2.90484646      0.76873274      0.09513304
C      -1.64421902      1.24836317      0.03577617
C      -0.50153234      0.48231951      0.07468371
N       0.74434053      1.02631715      0.00512518
H       2.96676895      1.70491331     -0.12233837
H       3.63131629      0.26930612     -0.69534554
H       2.35116245     -1.90555300      0.24878269
H      -3.99675434     -0.98310542      0.25229662
H      -1.56762349      2.32886825     -0.04968132
