18
Brc1cccc2ccccc12
Br      1.73269519      3.04735815     -0.55023767
C       1.38380591      1.20592105     -0.20233259
C       2.50343240      0.38639315     -0.01937069
C       2.33925552     -0.96928815      0.23880182
C       1.05695625     -1.50852342      0.31464527
C      -0.07972592     -0.70371246      0.13413900
C      -1.36206109     -1.27195942      0.21556549
C      -2.50562686     -0.49479375      0.04025025
C      -2.38233812      0.86312034     -0.21926159
C      -1.11469924      1.44408975     -0.30347318
C       0.06693302      0.68180119     -0.13018269
H       3.50787263      0.79844785     -0.07677174
H       3.20781864     -1.60705513      0.38114160
H       0.94992113     -2.57254830      0.51776121
H      -1.48096484     -2.33453569      0.41813105
H      -3.48975159     -0.95098258      0.10663487
H      -3.26976679      1.47548018     -0.35709596
H      -1.06375626      2.51078723     -0.50834445
