20
Cc1cccc(C)c1N
C      -2.53645651     -0.61021376     -0.08177426
C      -1.20810360      0.09113466     -0.17784941
C      -1.18452116      1.43167377     -0.59560553
C       0.01495619      2.13207680     -0.66721772
C       1.20263880      1.50635215     -0.30346406
C       1.20739158      0.16669928      0.11775986
C       2.51406656     -0.45221754      0.53631049
C       0.00242718     -0.56994574      0.12585839
N      -0.01902846     -1.88266035      0.63673674
H      -2.58855427     -1.42295614     -0.81325910
H      -2.68453218     -1.01269717      0.92556209
H      -3.36891370      0.07226670     -0.28410549
H      -2.10850272      1.94277360     -0.85618326
H       0.02155586      3.17059206     -0.98661731
H       2.12890022      2.07533379     -0.33760857
H       2.79080586     -1.25467256     -0.15493239
H       3.32709239      0.28173860      0.53535532
H       2.43959244     -0.85239999      1.55265366
H      -0.80670773     -2.43244504      0.31245467
H       0.85589326     -2.38043312      0.51592586
