15
Cn1ccccc1=O
C       2.15907152     -0.12629355      0.03781512
N       0.70930103     -0.02617522      0.01048479
C      -0.03712277     -1.18438117      0.14948928
C      -1.37502917     -1.15421294      0.13214211
C      -2.06360147      0.09952771     -0.03346199
C      -1.37447169      1.23931759     -0.17071610
C       0.11532676      1.22561963     -0.15391774
O       0.72239892      2.28542980     -0.28188244
H       2.48692991     -0.77879588     -0.77772187
H       2.63740602      0.84961389     -0.08083170
H       2.46898564     -0.55429353      0.99652219
H       0.50838908     -2.11528275      0.27279682
H      -1.96035898     -2.06109775      0.24097480
H      -3.14825555      0.09782647     -0.04421486
H      -1.84896924      2.20319771     -0.29747839
