15
Nc1cccc(N)n1
N      -2.40556795     -0.79298864     -0.45831442
C      -1.17021045     -0.20674144     -0.18575904
C      -1.07332269      1.16225164      0.01519394
C       0.17735162      1.71026164      0.27202728
C       1.28418576      0.87117198      0.30823435
C       1.09861893     -0.48364181      0.07594984
N       2.18229943     -1.36006911      0.11585785
N      -0.10665007     -1.02846421     -0.16358310
H      -2.24422967     -1.79532737     -0.52076137
H      -3.08539490     -0.56731756      0.25817167
H      -1.95371085      1.79292015     -0.03270066
H       0.28793561      2.77666361      0.44164494
H       2.27102091      1.26700717      0.51940039
H       1.82167304     -2.27952631     -0.12736896
H       2.91600126     -1.06619974     -0.51799270
