44
C[C@H]1C(c2ccc(Cl)cc2)SC(=O)N1C(=O)NC1CCCCC1
C      -2.09407823      0.68595476      1.34696671
C      -1.75554037     -0.36805514      0.28043842
C      -2.79443370     -0.50772331     -0.84359033
C      -4.24726236     -0.53053752     -0.42176053
C      -5.04395024      0.62369731     -0.33309911
C      -6.37513870      0.54631891      0.08870642
C      -6.92429729     -0.68473032      0.43333005
Cl     -8.56078402     -0.77792959      0.95377993
C      -6.15273290     -1.84016533      0.36244433
C      -4.82245831     -1.76271198     -0.05941262
S      -2.30582799      0.77623647     -2.02884323
C      -0.61754201      0.67934875     -1.54792303
O       0.27430246      1.19660224     -2.20382426
N      -0.48768910     -0.04380241     -0.37278475
C       0.70599446     -0.35787892      0.26168256
O       0.73676763     -0.90020316      1.36499159
N       1.84609506     -0.04967994     -0.43424257
C       3.17382663     -0.19778192      0.14319488
C       4.21937030     -0.33303125     -0.96920497
C       5.63420340     -0.43034738     -0.40520566
C       5.95455496      0.74480783      0.51349392
C       4.91851551      0.88819350      1.62419434
C       3.50142056      0.98487223      1.06494477
H      -1.28621729      0.77014413      2.08199456
H      -2.23482862      1.68081988      0.91156282
H      -3.00167026      0.41690736      1.89606161
H      -1.65470757     -1.33261451      0.79543359
H      -2.59320249     -1.44618919     -1.37914823
H      -4.64530896      1.60424615     -0.58671002
H      -6.97480015      1.45126568      0.14597261
H      -6.57842029     -2.80292093      0.63347918
H      -4.23834590     -2.68094875     -0.10469844
H       1.74454092      0.59874649     -1.21287443
H       3.17707497     -1.11785165      0.74218904
H       4.00525244     -1.22064237     -1.57702267
H       4.15777199      0.52837122     -1.64737203
H       6.35746241     -0.46289591     -1.22778742
H       5.74106254     -1.36930235      0.15179982
H       5.98791639      1.66963214     -0.07554531
H       6.94947866      0.60945678      0.95232246
H       4.98541379      0.02605974      2.29918028
H       5.14022202      1.77948586      2.22191596
H       2.78621959      1.02939641      1.89502389
H       3.39177007      1.92738000      0.51240189
