25
Cc1ccc(C(C)C)c(O)c1
C       3.83058595      0.07773342      0.24543174
C       2.33710987      0.00926848      0.12736961
C       1.59279175      1.16465982     -0.12531240
C       0.19828944      1.10691061     -0.20419736
C      -0.48991712     -0.10459620     -0.02299125
C      -2.00726838     -0.15647917     -0.11035756
C      -2.50658580      0.26716877     -1.49506435
C      -2.66009406      0.69038907      0.98607721
C       0.26799762     -1.25162168      0.24554761
O      -0.37252250     -2.44499067      0.43625549
C       1.66284023     -1.20056694      0.32571516
H       4.11526603      0.27304059      1.28386068
H       4.23703430      0.87280620     -0.38853000
H       4.29121801     -0.86173859     -0.07772703
H       2.09179583      2.12126853     -0.26394868
H      -0.34924381      2.02461735     -0.40689907
H      -2.34898653     -1.18705339      0.04269320
H      -3.59254140      0.14203457     -1.56656713
H      -2.27969894      1.31668127     -1.71136676
H      -2.04655596     -0.34327815     -2.28013206
H      -2.43361768      1.75602639      0.87208511
H      -3.74953322      0.57860198      0.96074515
H      -2.31433524      0.37943205      1.97823597
H       0.29147096     -3.13183717      0.60690194
H       2.23450063     -2.09847713      0.54217480
