22
CC1CCC(O)CC1
C       2.59427648     -0.23321637     -0.22633954
C       1.16828962     -0.01086781      0.27408300
C       0.47989582      1.10229850     -0.52803312
C      -0.96497544      1.30562268     -0.08203160
C      -1.76336163      0.00519456     -0.14613645
O      -3.06574724      0.21628478      0.38802088
C      -1.08341274     -1.10464045      0.65132919
C       0.36092838     -1.31474095      0.20685755
H       2.60397644     -0.55226909     -1.27408774
H       3.09809694     -1.00354284      0.36692381
H       3.18135146      0.68781678     -0.14734290
H       1.22518249      0.30564165      1.32422523
H       0.49578225      0.85655867     -1.59761231
H       1.03050473      2.04320331     -0.41037802
H      -1.44591269      2.06762597     -0.70715291
H      -0.98784694      1.70408171      0.94066965
H      -1.87730836     -0.31209472     -1.18959063
H      -3.48501716      0.92233123     -0.13284144
H      -1.64913014     -2.03799089      0.54327861
H      -1.11267452     -0.86342494      1.72201699
H       0.36939840     -1.70710742     -0.81813211
H       0.82770384     -2.07676435      0.84227385
