42
C[C@H]1CCC2(O)C(C)(C)C3CC[C@@]2(C)C1C3
C       3.26127252     -0.11762102      1.37958055
C       2.25303061     -0.33453813      0.24696755
C       1.54710836     -1.68681695      0.39332699
C       0.37547805     -1.87585743     -0.57274016
C      -0.56830525     -0.65663399     -0.78842612
O      -1.32778357     -0.97823149     -1.96661652
C      -1.57563624     -0.32426413      0.40860029
C      -1.66171122     -1.41765319      1.49860385
C      -3.04314458     -0.18277645     -0.09574717
C      -1.12201842      1.03009891      1.06616254
C      -1.31772121      2.19958573      0.09243394
C      -0.62036314      1.88042582     -1.22632777
C       0.29118154      0.62539168     -1.10213276
C       1.06466222      0.52130226     -2.43548218
C       1.23844976      0.82508551      0.12351257
C       0.38166157      1.00111612      1.40693605
H       4.02678595     -0.90110929      1.36352844
H       3.76885422      0.84598881      1.26590331
H       2.79005784     -0.13879721      2.36664802
H       2.84887514     -0.36732453     -0.67328674
H       2.27377834     -2.49215367      0.22371204
H       1.21245698     -1.82637185      1.42422295
H      -0.20114220     -2.76191914     -0.28145798
H       0.79453653     -2.16535989     -1.54670981
H      -1.77041117     -1.83029296     -1.81236359
H      -1.96307162     -2.38133564      1.07385695
H      -2.41410406     -1.15285576      2.25217940
H      -0.73097180     -1.56253257      2.04476330
H      -3.69266983      0.20849088      0.69634840
H      -3.45233018     -1.15367683     -0.39939205
H      -3.13667656      0.48643560     -0.95581976
H      -1.69730185      1.22425240      1.97972372
H      -2.37773133      2.41772126     -0.07578762
H      -0.89612092      3.11817261      0.52061562
H      -0.03213280      2.75457636     -1.53456651
H      -1.36926697      1.72892059     -2.01357168
H       0.37905050      0.51405436     -3.29053606
H       1.73388148      1.38019130     -2.56205684
H       1.67655235     -0.38046473     -2.51165287
H       1.81033449      1.75163621     -0.02861824
H       0.57668012      0.22954331      2.15579023
H       0.66592635      1.94559713      1.88987571
