34
C=C(CC(=O)c1ccc(-c2ccccc2Cl)cc1)C(=O)O
C       5.38465076     -1.64459620      1.67755312
C       4.56938166     -1.01683826      0.81229528
C       3.09514317     -1.30388632      0.71383095
C       2.26952935     -0.11743837      1.20246869
O       2.71140268      0.72312405      1.98549698
C       0.85369826      0.00198637      0.74293734
C       0.20559454      1.23332066      0.89734435
C      -1.12183783      1.39184920      0.48775450
C      -1.83020296      0.32305952     -0.08012417
C      -3.23060099      0.48830654     -0.49845764
C      -4.22764816      0.60771428      0.48862900
C      -5.57282011      0.76383593      0.14478129
C      -5.94875884      0.80439688     -1.19439992
C      -4.97968117      0.69045288     -2.19007877
C      -3.63122435      0.53436018     -1.84772559
Cl     -2.49110562      0.42041170     -3.14575172
C      -1.17589210     -0.91095389     -0.21955477
C       0.15436785     -1.07341451      0.18626364
C       5.06993779      0.00579478     -0.13587496
O       4.41160553      0.50925026     -1.02978336
O       6.35614338      0.34047887      0.05474488
H       5.00778053     -2.38941810      2.37061562
H       6.44660189     -1.42209484      1.73206432
H       2.85057867     -1.53161157     -0.32997941
H       2.82331216     -2.17359248      1.32357631
H       0.73367654      2.08041912      1.33212892
H      -1.59928905      2.36252673      0.60981941
H      -3.95551856      0.57374138      1.54274653
H      -6.32509436      0.85269877      0.92531292
H      -6.99503863      0.92652622     -1.46384567
H      -5.27944911      0.72793605     -3.23452325
H      -1.70539018     -1.75989948     -0.64951587
H       0.61007762     -2.05131273      0.06485999
H       6.51606965      1.03286638     -0.61847128
