29
c1ccc2c(c1)Nc1c(ccc3ccccc13)S2
C       4.38344073     -1.28781509     -0.23607471
C       4.86555922     -0.01073730     -0.49821039
C       3.97508644      1.05861258     -0.59285373
C       2.59608852      0.86215356     -0.41911537
C       2.10627036     -0.41869952     -0.12794281
C       3.01320329     -1.49035863     -0.06172524
N       0.73042356     -0.69321370     -0.00324236
C      -0.33375115      0.24549009      0.01197168
C      -0.08754607      1.61063163     -0.24341392
C      -1.14685733      2.52369452     -0.24516201
C      -2.45234737      2.09739931     -0.01926623
C      -2.73551191      0.74493258      0.19073039
C      -4.06609544      0.33880237      0.38820901
C      -4.38771631     -1.00294377      0.57518214
C      -3.38134882     -1.95673204      0.56003833
C      -2.05263073     -1.56578399      0.36906294
C      -1.68372520     -0.20755125      0.19208426
S       1.53599830      2.28404211     -0.56237514
H       5.07009526     -2.12810932     -0.17481121
H       5.93067768      0.15451643     -0.63764897
H       4.36441885      2.05132233     -0.80824550
H       2.65404741     -2.49966227      0.12263428
H       0.54138084     -1.53592427      0.52185891
H      -0.96355613      3.58082627     -0.42575909
H      -3.25066079      2.83676397     -0.02620352
H      -4.87074772      1.07164700      0.39128237
H      -5.42238107     -1.30049323      0.72250763
H      -3.62485952     -3.00789877      0.69145443
H      -1.30695490     -2.35491160      0.34503386
