11
COC(=O)C(F)(F)F
C       1.88650351      0.14479651     -0.15079366
O       0.51977265      0.21418259     -0.56103914
C      -0.37931296     -0.15545874      0.40693387
O      -0.05538203     -0.51762157      1.53464581
C      -1.80952764     -0.04994727     -0.12046744
F      -2.12528202      1.21766225     -0.51349166
F      -2.74816799     -0.40594294      0.80118137
F      -2.02217454     -0.84788446     -1.20632206
H       2.50921028      0.45847512     -0.99313253
H       2.15478661     -0.88241250      0.11498631
H       2.06957413      0.82415102      0.68749913
