22
Clc1cc(Cl)c(-c2ccccc2)c(Cl)c1
Cl      5.23962961     -0.00957817      0.56791312
C       3.52821064     -0.00644899      0.39757658
C       2.75026991     -0.79873002      1.23297550
C       1.35841138     -0.79550002      1.09365708
Cl      0.46161228     -1.81123338      2.17446485
C       0.71923314     -0.00131281      0.11800081
C      -0.74615361      0.00136515     -0.02784937
C      -1.38265850     -0.90632512     -0.88923495
C      -2.77232392     -0.90327300     -1.02709735
C      -3.54285998      0.00647369     -0.30620599
C      -2.92624715      0.91368689      0.55274820
C      -1.53666870      0.91166258      0.69150410
C       1.54105086      0.79020305     -0.71224371
Cl      0.87856195      1.80878639     -1.94824779
C       2.93306706      0.78834262     -0.57448506
H       3.22259643     -1.41830934      1.99156210
H      -0.79713937     -1.62386227     -1.46006397
H      -3.25271243     -1.61129893     -1.69737455
H      -4.62444630      0.00844918     -0.41385604
H      -3.52676381      1.62368660      1.11544404
H      -1.07255915      1.62728240      1.36680342
H       3.54788964      1.40593351     -1.22486899
