18
Clc1cc2ccccc2cc1Cl
Cl      4.07734667      0.86214215      0.08004764
C       2.46847316      0.23123297      0.05011905
C       1.41204200      1.14690214      0.02290796
C       0.07975164      0.70485294     -0.00234300
C      -0.99072921      1.61280750     -0.02978674
C      -2.31007617      1.15848185     -0.05469254
C      -2.57598750     -0.20751207     -0.05248504
C      -1.52338880     -1.12348764     -0.02536860
C      -0.19047356     -0.68330172     -0.00009672
C       0.87872634     -1.59275252      0.02734373
C       2.20151279     -1.14014936      0.05233919
Cl      3.45625995     -2.32840194      0.08519977
H       1.62966738      2.21309897      0.02139388
H      -0.80577416      2.68514420     -0.03201732
H      -3.12995122      1.87217655     -0.07582221
H      -3.60372587     -0.56160266     -0.07188521
H      -1.75418311     -2.18690391     -0.02413839
H       0.68050968     -2.66272746      0.02928455
