22
CC[C@H](C)[C@H](N)C(=O)O
C      -2.68168642     -0.24523227      0.22069400
C      -1.27250380     -0.76284332     -0.04188059
C      -0.16012439      0.30786385      0.08194918
C      -0.45884661      1.50193781     -0.84021909
C       1.24898825     -0.27602412     -0.22385667
N       1.55553405     -1.48876803      0.60080430
C       2.35498552      0.75725918      0.09854787
O       2.70857934      1.67211980     -0.62672507
O       2.90105678      0.51972651      1.32193642
H      -3.38338944     -1.08427238      0.27396136
H      -2.73161485      0.29826556      1.16929760
H      -3.02605551      0.41358791     -0.58158134
H      -1.09433937     -1.56295706      0.68487131
H      -1.24010593     -1.22123103     -1.03775252
H      -0.16539720      0.68383034      1.11453072
H      -0.48727510      1.19104754     -1.88991467
H       0.29049420      2.29131369     -0.73858439
H      -1.41788235      1.96815107     -0.59545812
H       1.34058989     -0.55705131     -1.27926367
H       2.41395382     -1.90722328      0.22141247
H       0.84426988     -2.19848089      0.40988789
H       2.46076922     -0.30101956      1.65734301
