35
CCCCCC1(CCO)C(=O)NC(=S)NC1=O
C      -4.05706541      0.36542543     -1.31139266
C      -3.88913548      0.22707789      0.19386596
C      -2.69031072     -0.63331558      0.59947413
C      -1.34311813     -0.02178085      0.20118280
C      -0.17556857     -0.86937552      0.73077218
C       1.25140668     -0.34630701      0.38818133
C       2.28205491     -1.32984237      1.01375120
C       3.74005134     -0.87856992      0.91004451
O       4.07704494     -0.52428418     -0.42106790
C       1.42605534      1.02229304      1.01936035
O       1.58844719      1.18440142      2.22821968
N       1.32577760      2.10587991      0.19011093
C       1.26446696      2.07070061     -1.16628407
S       1.19986325      3.46919276     -2.06206819
N       1.26508184      0.85144709     -1.76393259
C       1.40265733     -0.35068696     -1.12464980
O       1.58947898     -1.37844638     -1.77700680
H      -4.10896104     -0.61596531     -1.79322758
H      -4.98338897      0.90328805     -1.53764176
H      -3.23161653      0.92783494     -1.75746021
H      -4.79782410     -0.22854795      0.60515111
H      -3.80284104      1.22292743      0.64389010
H      -2.71723787     -0.76557538      1.68819585
H      -2.78846783     -1.63210927      0.15696967
H      -1.28240968      0.99606098      0.60117850
H      -1.28514910      0.04541699     -0.88935628
H      -0.27665729     -0.94476334      1.82220162
H      -0.28676722     -1.88991898      0.33919252
H       2.19139280     -2.30722296      0.52144579
H       2.05499669     -1.49685073      2.07464690
H       3.93162330     -0.01073966      1.54782336
H       4.41075674     -1.67908238      1.23914588
H       3.97711199     -1.32487841     -0.97256152
H       1.40531623      3.01158920      0.63531700
H       1.33293484      0.82472742     -2.77347202
