18
O=C(O)c1ccc2c(c1)C(=O)OC2=O
O       3.39316396     -1.34433937      0.19061300
C       2.69839354     -0.34920517      0.26527809
O       3.22110605      0.86150457      0.51856362
C       1.22503342     -0.30800201      0.09682676
C       0.55290026     -1.52347803     -0.17495440
C      -0.83632011     -1.55305508     -0.34459330
C      -1.51496638     -0.35313852     -0.23567263
C      -0.86887651      0.82311965      0.02682197
C       0.50292559      0.89021778      0.20031862
C      -1.86074737      1.87381179      0.07497972
O      -1.65297701      3.05046057      0.28548623
O      -3.05638934      1.27002190     -0.16236058
C      -2.92762540     -0.06982003     -0.35867809
O      -3.80628530     -0.87386535     -0.59000469
H       4.18436325      0.69739292      0.60702873
H       1.12071385     -2.45112143     -0.25403495
H      -1.36146660     -2.48084504     -0.55348410
H       0.98705411      1.84034085      0.40786598
