22
CC(C)(C)COC(N)=O
C      -1.34700518     -0.61545048     -1.04409199
C      -0.92778065      0.38573109      0.04563529
C      -0.43067261      1.67600964     -0.62792561
C      -2.14347378      0.71169693      0.92759397
C       0.18553693     -0.21991599      0.92904845
O       1.33525924     -0.53464293      0.13045375
C       2.36141166     -1.07128587      0.82587478
N       3.39212884     -1.33218580     -0.00707901
O       2.38723219     -1.29919386      2.02395041
H      -2.16536854     -0.21537133     -1.65348031
H      -0.51665733     -0.84751698     -1.71994919
H      -1.69141773     -1.55715450     -0.60219093
H      -1.22365747      2.13954738     -1.22579152
H       0.41494087      1.48211198     -1.29684776
H      -0.10518973      2.40951469      0.11822076
H      -2.53005677     -0.18929236      1.41703500
H      -1.88193680      1.43144989      1.71138933
H      -2.95807464      1.14484021      0.33628343
H       0.47631886      0.49650391      1.70812449
H      -0.17683233     -1.13681978      1.41148708
H       3.30979527     -1.12095298     -0.98888178
H       4.23549971     -1.73762287      0.36835839
