53
O=C(NCc1ccc(OC(F)(F)F)cc1)C1c2ccccc2C(=O)N1CCc1ccc(F)cn1
O       0.44724561     -1.47129890     -2.95784674
C       0.06122926     -0.85576556     -1.96703131
N       0.85224456     -0.69385094     -0.84313057
C       2.12699591     -1.36257893     -0.74943158
C       2.86599930     -0.91616368      0.48312613
C       3.71230441      0.19874490      0.44190379
C       4.36762161      0.64423052      1.59569898
C       4.17785605     -0.01502426      2.81037323
O       4.74239804      0.31095282      4.00972829
C       5.60468812      1.43481908      4.05012482
F       6.68046392      1.25328407      3.25482007
F       4.95555445      2.56024894      3.68190714
F       6.04238520      1.60026932      5.31781279
C       3.32837243     -1.12425015      2.85476710
C       2.67447308     -1.57161914      1.70459185
C      -1.34845032     -0.25303211     -1.81344995
C      -1.94799471      0.21276273     -3.11143967
C      -1.48348765      1.14873295     -4.02126042
C      -2.26157106      1.41194408     -5.15483399
C      -3.48573634      0.74988968     -5.36353198
C      -3.95156611     -0.18807969     -4.44133667
C      -3.16326794     -0.43403780     -3.33298064
C      -3.41463303     -1.34545094     -2.21211822
O      -4.42040428     -2.01350273     -2.06614491
N      -2.32400224     -1.25323661     -1.36512979
C      -2.25189672     -1.93659972     -0.08176509
C      -2.92474649     -1.17425353      1.06180660
C      -2.17350670      0.03930185      1.56280241
C      -2.89383090      1.08871319      2.14159632
C      -2.20575851      2.17536003      2.67829938
C      -0.82299758      2.17602730      2.63969218
F      -0.13051254      3.19874075      3.15456150
C      -0.17327675      1.10133924      2.06329712
N      -0.81286988      0.03256925      1.51282424
H       0.36871820     -0.48740654      0.03146901
H       2.71274612     -1.15393588     -1.65282723
H       1.95030099     -2.44462003     -0.72596385
H       3.86600820      0.73184523     -0.49523674
H       5.01518227      1.51135083      1.50034666
H       3.16772177     -1.64703109      3.79561997
H       2.00822649     -2.42967362      1.77100480
H      -1.34420715      0.58506243     -1.11029346
H      -0.53730665      1.66030961     -3.87327396
H      -1.91386052      2.13576084     -5.88960705
H      -4.07148736      0.96960225     -6.25336769
H      -4.89224015     -0.70905851     -4.58365553
H      -1.21277340     -2.19370112      0.14104917
H      -2.78787616     -2.88648728     -0.20115201
H      -3.04102273     -1.85303630      1.91583347
H      -3.93226086     -0.87483916      0.74645392
H      -3.97947267      1.06117276      2.18446936
H      -2.73728918      3.00506512      3.13143128
H       0.91157063      1.07623071      2.02939747
