56
Cc1cc(C)cc(OP(=O)(Oc2cc(C)cc(C)c2)Oc2cc(C)cc(C)c2)c1
C      -5.71544698     -1.48019298      2.17598747
C      -4.51332889     -1.71942522      1.31169201
C      -4.45289326     -2.83124573      0.46309435
C      -3.34663756     -3.03536689     -0.37166876
C      -3.27417364     -4.23798110     -1.26740331
C      -2.28601086     -2.11852600     -0.34531684
C      -2.34598925     -1.00169358      0.48410543
O      -1.37473250     -0.04509003      0.56193404
P       0.00590595     -0.05716023     -0.27275383
O      -0.14849665     -0.14788884     -1.76609255
O       0.76658374      1.26290838      0.25898327
C       0.34917888      2.54491440      0.03811273
C       1.09294594      3.54149698      0.67203228
C       0.75082341      4.88987020      0.52278492
C       1.52981967      5.96394736      1.22234083
C      -0.35606295      5.22671908     -0.26590596
C      -1.09798289      4.23511938     -0.92070103
C      -2.29820551      4.60446240     -1.74254726
C      -0.74277898      2.88923532     -0.75545496
O       0.83667643     -1.26147673      0.40751256
C       2.13477886     -1.57353732      0.11866141
C       2.72552472     -2.53181142      0.94428337
C       4.05409238     -2.92346854      0.74420863
C       4.67031394     -3.97413954      1.61930188
C       4.77683503     -2.35845910     -0.31284924
C       4.19495336     -1.39011721     -1.14259249
C       4.97387316     -0.82068225     -2.29272257
C       2.86451665     -1.00711360     -0.92367944
C      -3.45741987     -0.80089711      1.30351514
H      -6.25140005     -2.41446578      2.37424795
H      -6.39888721     -0.78211583      1.68208817
H      -5.41787016     -1.06433014      3.14477278
H      -5.27635130     -3.54304305      0.44960362
H      -2.58620330     -4.97863258     -0.84719938
H      -2.92646791     -3.94987145     -2.26522484
H      -4.25656156     -4.70660372     -1.38741108
H      -1.43163208     -2.29849221     -0.99250478
H       1.94228864      3.25863516      1.28953887
H       0.93896965      6.38160484      2.04347176
H       1.78855111      6.76422818      0.52101291
H       2.46528291      5.57446268      1.63632148
H      -0.64021653      6.27208825     -0.37377628
H      -3.19528543      4.60277462     -1.11582019
H      -2.17800426      5.59829537     -2.18589132
H      -2.44003258      3.89743830     -2.56654537
H      -1.33375120      2.13141102     -1.26168908
H       2.14310918     -2.97460564      1.74952644
H       5.76380986     -3.91352145      1.59765019
H       4.35770747     -3.84087185      2.66089736
H       4.36778223     -4.96980451      1.28093426
H       5.80259841     -2.67402707     -0.49485513
H       6.01217072     -0.63256330     -1.99921819
H       4.96052440     -1.52090578     -3.13421663
H       4.55140563      0.13352910     -2.62574640
H       2.41967219     -0.27286129     -1.58976733
H      -3.49787120      0.07984801      1.94093814
