24
CCC(=O)OCc1ccc(Cl)cc1Cl
C      -4.51775357     -0.09635616     -0.20431544
C      -3.07389125     -0.54839886     -0.33388107
C      -2.10184403      0.56121609     -0.01354367
O      -2.40265999      1.70450192      0.29746451
O      -0.82819085      0.09445430     -0.12997943
C       0.17014901      1.06488647      0.19345070
C       1.52061000      0.40382099      0.06858164
C       2.28889175      0.62831470     -1.08764703
C       3.53604555      0.01998294     -1.24479624
C       4.02381297     -0.82397326     -0.25102953
Cl      5.56012527     -1.57324390     -0.44677936
C       3.27635050     -1.06868257      0.89701881
C       2.02808030     -0.46001350      1.05406759
Cl      1.14280493     -0.81424188      2.49563297
H      -5.19798549     -0.92047720     -0.44015548
H      -4.73302920      0.24500375      0.81370067
H      -4.73333639      0.73188342     -0.88751622
H      -2.88920485     -0.88573840     -1.35917638
H      -2.89107527     -1.37910595      0.35591152
H       0.09887423      1.90970872     -0.50327611
H       0.02616435      1.45473081      1.20832626
H       1.91725258      1.27878325     -1.87788898
H       4.11802119      0.20618761     -2.14415360
H       3.66178825     -1.73324328      1.66567716
