22
Clc1cccc(Cl)c1-c1c(Cl)cccc1Cl
Cl      0.61154352     -2.75485675      0.23815730
C       1.44030318     -1.23654328      0.13098750
C       2.83944712     -1.26954416      0.16259988
C       3.57037351     -0.08758430      0.08095013
C       2.90269401      1.12868166     -0.03241270
C       1.50362009      1.16432138     -0.06424929
Cl      0.75596251      2.72130249     -0.20716202
C       0.73941368     -0.01814215      0.01675907
C      -0.73941470      0.01813480     -0.01676755
C      -1.49677023      0.13437586      1.16716551
Cl     -0.74033298      0.24090238      2.72281893
C      -2.89585203      0.16859589      1.13413094
C      -3.57037606      0.08758987     -0.08094294
C      -2.84629129     -0.02772994     -1.26431027
C      -1.44715531     -0.06216236     -1.23391385
Cl     -0.62717308     -0.20736794     -2.75383177
H       3.36409430     -2.21832162      0.25110440
H       4.65713800     -0.11423762      0.10559046
H       3.47667969      2.05050671     -0.09600871
H      -3.46449197      0.25863914      2.05706557
H      -4.65714080      0.11425630     -0.10557706
H      -3.37627115     -0.09081637     -2.21215355
