27
CN(C)CNC(=O)c1ccccc1
C      -2.99284887      1.24011521     -0.00674742
N      -2.74959932     -0.19614719     -0.18521299
C      -4.00930847     -0.92491749     -0.01423475
C      -1.77217731     -0.68207047      0.78126449
N      -0.50005033     -0.24228070      0.30240449
C       0.63289282     -0.41854578      1.06206163
O       0.61189432     -0.85195495      2.20896701
C       1.92823266     -0.08590243      0.40486264
C       2.01341714      0.83032365     -0.65209329
C       3.25150519      1.11192843     -1.23531912
C       4.40601984      0.48785887     -0.76284739
C       4.32908175     -0.41329045      0.29827979
C       3.09415440     -0.69685725      0.88430877
H      -3.72172974      1.59704681     -0.74339135
H      -2.07924913      1.82135794     -0.17322400
H      -3.37372988      1.47603068      0.99384985
H      -3.86230101     -1.99585970     -0.19441631
H      -4.43004900     -0.79794361      0.99013394
H      -4.75217721     -0.58644372     -0.74536590
H      -1.73538141     -1.77810945      0.79973713
H      -1.94731888     -0.32788105      1.80439990
H      -0.43142472     -0.16338598     -0.69968429
H       1.13297931      1.35166569     -1.01635723
H       3.31734007      1.82529847     -2.05329036
H       5.36882994      0.71057304     -1.21648281
H       5.22976023     -0.89320702      0.67290810
H       3.04123763     -1.39740153      1.71550599
