21
Cc1[nH]c(=O)[nH]c(=O)c1CC(=O)O
C      -0.37406893      2.05223086     -1.03958557
C      -0.75882137      0.74902024     -0.39724324
N      -2.04437973      0.33586512     -0.65921055
C      -2.59341550     -0.82999354     -0.21047127
O      -3.74821624     -1.14617292     -0.47552612
N      -1.77905968     -1.61033648      0.54969599
C      -0.49714024     -1.30048619      0.89389691
O       0.17496244     -2.03491034      1.61162329
C       0.04684200     -0.01352376      0.36710195
C       1.46513891      0.28140855      0.77011145
C       2.42169977     -0.56469755     -0.03785615
O       2.20633487     -1.11991875     -1.10280534
O       3.65079609     -0.60981745      0.51681509
H      -0.64537803      2.04704034     -2.10141348
H       0.69780374      2.25757481     -0.99194229
H      -0.90114352      2.88109181     -0.55561820
H      -2.65705316      0.90052719     -1.23724674
H      -2.15992942     -2.47592327      0.89646829
H       1.73127609      1.33155915      0.62360774
H       1.60287492      0.06396895      1.83578279
H       4.16087698     -1.19450678     -0.08276284
