18
NC(=O)c1ccccc1N
N       2.68542165     -0.29320070      0.84959136
C       1.82362753      0.47605539      0.11330899
O       2.18886069      1.54515517     -0.36288754
C       0.43066071     -0.02824627     -0.04697782
C       0.19564410     -1.41277934     -0.10145400
C      -1.10264461     -1.90013808     -0.25031371
C      -2.16969095     -1.01073045     -0.33721454
C      -1.93890662      0.36658372     -0.29678169
C      -0.63798209      0.87955766     -0.20103907
N      -0.47697266      2.27007137     -0.03452890
H       2.33678353     -0.98546975      1.49790747
H       3.57209476      0.14103177      1.07305263
H       1.01922714     -2.11952261     -0.04853453
H      -1.28234544     -2.97152489     -0.29281900
H      -3.18588762     -1.38591390     -0.43069413
H      -2.78837656      1.04423620     -0.33797302
H      -1.15508452      2.82568220     -0.54466632
H       0.48557095      2.55915250     -0.24797621
