57
CC1C[C@H]2[C@@H]3CC[C@](O)(C(=O)CO)[C@@]3(C)C[C@H](O)[C@@H]2[C@@]2(C)C=CC(=O)C=C12
C      -3.99956513     -1.96870921      1.50025042
C      -2.96038614     -0.86331491      1.26227125
C      -1.64066122     -1.50214437      0.80258507
C      -0.51619788     -0.46957156      0.60105673
C       0.73693959     -1.14444873      0.01964493
C       1.32805945     -2.33987249      0.75602232
C       2.75374591     -2.47006773      0.18705286
C       3.00897464     -1.20276495     -0.68063434
O       2.72754535     -1.54064540     -2.04387607
C       4.47531853     -0.72809849     -0.61018603
O       5.32496181     -1.28872754      0.08817957
C       4.87029388      0.47369962     -1.46204596
O       6.28102143      0.56085066     -1.61936156
C       1.94359389     -0.18884608     -0.15252101
C       2.43191259      0.42543545      1.18718665
C       1.49689729      0.91426669     -1.13803120
C       0.20482505      1.64158109     -0.70461985
O       0.49459142      2.49991659      0.39071070
C      -0.96710793      0.67347874     -0.36764698
C      -2.31019465      1.35436383      0.09875639
C      -2.20184242      2.13213587      1.43033461
C      -2.76100001      2.37571595     -0.94151195
C      -3.90550163      2.32690248     -1.63312515
C      -4.86179615      1.22722192     -1.42723260
O      -5.90808904      1.16850808     -2.06051421
C      -4.50617958      0.19529546     -0.43133856
C      -3.35593178      0.22772099      0.27077362
H      -4.94340662     -1.55117234      1.86708699
H      -3.64092244     -2.67580234      2.25706038
H      -4.20115800     -2.53989046      0.58760631
H      -2.79867961     -0.39085722      2.24042234
H      -1.32227252     -2.23998924      1.55014469
H      -1.80501318     -2.05569915     -0.13337517
H      -0.28077698     -0.04903396      1.58411106
H       0.44382113     -1.51885525     -0.97597381
H       1.36178410     -2.16906778      1.83863519
H       0.75178641     -3.25496665      0.58351996
H       3.45561477     -2.56148085      1.02398272
H       2.83574571     -3.38765074     -0.40771693
H       3.25628982     -2.32905083     -2.27208857
H       4.52955779      1.39055467     -0.97683040
H       4.42698753      0.39087869     -2.45621837
H       6.66845261      0.16553698     -0.81260733
H       1.62943968      0.88116109      1.77108917
H       3.17910511      1.20572119      1.00795461
H       2.90037408     -0.31680242      1.84226770
H       1.31401944      0.47976242     -2.12907964
H       2.29856745      1.65060782     -1.26149990
H      -0.09422319      2.28777270     -1.53776039
H       1.14557457      3.16121399      0.08875154
H      -1.19863267      0.17603774     -1.32603494
H      -3.19676024      2.36621669      1.82949311
H      -1.66831288      1.57409405      2.20499350
H      -1.68726548      3.09256929      1.31188387
H      -2.11059219      3.23207423     -1.10889859
H      -4.18714914      3.08645700     -2.35206425
H      -5.24618235     -0.59022128     -0.33527231
