16
N#CCN(CC#N)CC#N
N       2.46277308      2.23832917     -1.10837239
C       1.58107464      1.78733355     -0.50284912
C       0.47620319      1.16704967      0.26410911
N      -0.22107780      0.07564864     -0.46503951
C       0.68514767     -1.05085673     -0.81193759
C       1.27577377     -1.77250915      0.33620179
N       1.69684001     -2.31028546      1.27406530
C      -1.40352166     -0.40670167      0.28881003
C      -2.50163162      0.58363070      0.36607675
N      -3.34848229      1.37340569      0.44580897
H       0.85615938      0.81177741      1.22979850
H      -0.23694865      1.96974598      0.48691182
H       0.12507146     -1.76611504     -1.42794911
H       1.48758323     -0.69204790     -1.46694252
H      -1.12279865     -0.71477217      1.30358457
H      -1.81216576     -1.29363270     -0.21227661
