27
NS(=O)(=O)c1cc(C(=O)c2ccc(O)cc2)cs1
N       5.14323377      0.94088248     -0.05024274
S       3.72766720      1.15650276      0.82453103
O       4.06591520      0.97129545      2.21539828
O       3.12905622      2.37376444      0.32786658
C       2.59460975     -0.13681177      0.40428943
C       1.28044734     -0.11390146     -0.02358665
C       0.73197054     -1.42427093     -0.24019567
C      -0.61403543     -1.78323961     -0.69765760
O      -0.86183159     -2.88118281     -1.18928469
C      -1.71682404     -0.79656700     -0.57974112
C      -1.91580740     -0.05583976      0.59402830
C      -2.97367080      0.85383621      0.67453121
C      -3.83136485      1.00452413     -0.41180818
O      -4.87492204      1.88023330     -0.37593955
C      -3.65640826      0.25694032     -1.57169520
C      -2.60165901     -0.65274766     -1.65557834
C       1.69584270     -2.38802987      0.00468116
S       3.18518015     -1.73298355      0.52637653
H       5.89980716      0.69248184      0.58898945
H       5.34422897      1.78874564     -0.58202069
H       0.75014487      0.81941781     -0.17920531
H      -1.26709898     -0.18981762      1.45636115
H      -3.11702323      1.42469709      1.58714395
H      -4.88750888      2.32251729      0.48881744
H      -4.34299943      0.37769670     -2.40545579
H      -2.47259212     -1.24691693     -2.55796899
H       1.58564218     -3.46122649     -0.09435936
