37
CC(C)(C)CC(C)(C)c1ccc(O)cc1
C      -2.74527479      1.41222726      1.18263178
C      -1.99821120      0.53415557      0.14812928
C      -3.07682529     -0.20916380     -0.66364422
C      -1.22300040      1.47242337     -0.78447718
C      -1.09110389     -0.45372260      0.95340174
C       0.09468922     -1.24325113      0.28941655
C      -0.41551431     -2.08677022     -0.89782314
C       0.60156695     -2.26954821      1.34387199
C       1.29855303     -0.34238797     -0.05926930
C       1.90398258     -0.34917432     -1.32928934
C       3.00039028      0.47047892     -1.61768603
C       3.51702695      1.30444642     -0.63886090
O       4.58531146      2.08572451     -0.96356809
C       2.95752860      1.32981112      0.62987478
C       1.86082923      0.50923918      0.91499027
H      -2.04322639      2.00701986      1.77822034
H      -3.33294376      0.79609424      1.87279257
H      -3.43329828      2.11073980      0.69249460
H      -2.66364472     -0.74254401     -1.52145267
H      -3.81883242      0.49243014     -1.06366505
H      -3.61490189     -0.93302592     -0.04165190
H      -1.89347398      2.20838311     -1.24445746
H      -0.74595142      0.92935184     -1.60456268
H      -0.45629357      2.03306387     -0.24039033
H      -1.76432281     -1.19599152      1.40938736
H      -0.68829597      0.09667186      1.81413357
H      -0.67058032     -1.47152437     -1.76487332
H       0.34089913     -2.80806294     -1.23140293
H      -1.30356449     -2.66555409     -0.61878702
H       1.46641816     -2.83142787      0.97028519
H      -0.18026757     -2.99568483      1.59656085
H       0.90525932     -1.78456153      2.27862504
H       1.54049966     -0.98817465     -2.12892872
H       3.44836612      0.45273816     -2.60717828
H       4.83055181      2.61047019     -0.18432494
H       3.35511994      1.97181627      1.40909541
H       1.45253502      0.54328430      1.92238217
