21
CCOC(=O)c1ccccc1
C       3.33963851      1.38965249     -1.01680188
C       2.72216562      0.05070818     -0.66345610
O       1.33777005      0.26326704     -0.36231113
C       0.66246262     -0.86476291     -0.02761238
O       1.13599434     -1.98882239      0.02967898
C      -0.76304798     -0.55560462      0.26865805
C      -1.28241236      0.74449000      0.19607552
C      -2.62919289      0.97917774      0.48471518
C      -3.46200470     -0.07941565      0.84619185
C      -2.95278475     -1.37510225      0.92055194
C      -1.60740882     -1.61376810      0.63287106
H       4.40104042      1.27909463     -1.25565617
H       2.82799767      1.83518593     -1.87636232
H       3.23563779      2.09367457     -0.18454224
H       3.23028046     -0.37197995      0.21055856
H       2.81499469     -0.63526910     -1.51290724
H      -0.65121991      1.58423060     -0.08357400
H      -3.02853670      1.98893567      0.42737775
H      -4.50984256      0.10572133      1.07036905
H      -3.60208716     -2.20041570      1.20237367
H      -1.21944434     -2.62899751      0.69380183
