11
CC(Br)CBr
C      -1.20574903     -0.32369037      0.39447465
C      -0.03102427      0.58644594      0.06132088
Br     -0.61443314      1.81820406     -1.35891598
C       1.19644354     -0.15617755     -0.43980405
Br      2.08478490     -1.09537022      1.02055413
H      -1.49171130     -0.94285982     -0.46334009
H      -0.96791337     -0.99250457      1.22728819
H      -2.08565782      0.26013567      0.68751343
H       0.20636208      1.23025324      0.91474177
H       0.95530495     -0.90682217     -1.19869592
H       1.95359346      0.52238579     -0.84513703
