15
ClC(Cl)c1ccccc1
Cl      2.98617893      1.35792901     -0.26037279
C       2.19087929     -0.17838847      0.15834641
Cl      2.67022841     -0.70184644      1.79061933
C       0.68884501     -0.06500963      0.04082640
C      -0.04916631      0.83482799      0.83082525
C      -1.43684313      0.92374172      0.70635184
C      -2.10836846      0.11622418     -0.20806665
C      -1.39437818     -0.78081057     -0.99895058
C      -0.00606406     -0.87182417     -0.87648792
H       2.57808044     -0.92961035     -0.53644522
H       0.45537961      1.47593021      1.55239394
H      -1.99307243      1.62432298      1.32424469
H      -3.18884274      0.18634090     -0.30409381
H      -1.91998443     -1.41069543     -1.71249790
H       0.52712805     -1.58113193     -1.50669298
