27
CC1COc2ccccc2N1C(=O)C(Cl)Cl
C      -1.36536129     -2.08203224     -1.07131855
C      -1.34523870     -1.27014053      0.22673172
C      -0.45527770     -1.89018388      1.30370980
O       0.92686892     -1.89563003      0.94572187
C       1.35681660     -0.72759431      0.36317132
C       2.74474543     -0.62096769      0.23581880
C       3.30695159      0.48357581     -0.39566799
C       2.47811073      1.46466523     -0.92902187
C       1.08748610      1.35595264     -0.81037405
C       0.50313092      0.28219353     -0.12683675
N      -0.91103604      0.11773996     -0.00666835
C      -1.90826230      1.08609491     -0.15671151
O      -3.05317851      0.75280800     -0.49082138
C      -1.59680898      2.53069747      0.25159263
Cl     -1.90443412      3.61947324     -1.11778523
Cl     -2.65340259      2.96275849      1.62730072
H      -1.72127482     -3.10011168     -0.88221002
H      -2.03549429     -1.62101849     -1.80485866
H      -0.37534380     -2.15213623     -1.53328949
H      -2.36854649     -1.25773565      0.62336255
H      -0.75179564     -2.92808881      1.49084765
H      -0.55953236     -1.34859651      2.25292263
H       3.38564907     -1.40940724      0.62265433
H       4.38636476      0.56266931     -0.49740071
H       2.91243695      2.30626859     -1.46476305
H       0.49566431      2.10135900     -1.32882372
H      -0.57923773      2.67738711      0.60851598
