8
FCC(F)(F)F
F      -1.15229099     -0.37107073     -1.30480118
C      -0.78171804     -0.03338717     -0.03814346
C       0.72423428      0.04390251      0.08565518
F       1.24823394      0.97738932     -0.73821502
F       1.07602668      0.38049622      1.35027984
F       1.31203843     -1.14012738     -0.19236407
H      -1.18734621     -0.78869469      0.64050827
H      -1.23917809      0.93149192      0.19708044
