53
O=C(CC(CP1(=O)Oc2ccccc2-c2ccccc21)C(=O)OCCO)OCCO
O      -0.39513886     -1.17356920     -2.76835050
C      -1.32420289     -1.02712162     -1.98807497
C      -1.72294902      0.28392570     -1.35514771
C      -0.69977196      1.39556859     -1.62693980
C       0.63915791      1.21079656     -0.89646817
P       0.57705839      1.22671229      0.91272565
O      -0.43179860      2.22834043      1.42153962
O       0.10313211     -0.28099064      1.25932072
C       0.99125904     -1.32400641      1.22492504
C       0.42105772     -2.58171411      1.00422309
C       1.23269316     -3.70364979      0.89609745
C       2.61024481     -3.56229766      1.01045665
C       3.17145706     -2.30322123      1.25986005
C       2.37721618     -1.14853903      1.40203711
C       2.96150362      0.17692171      1.73553104
C       4.24936929      0.32541203      2.28324780
C       4.77549907      1.58376429      2.59650378
C       4.02267830      2.72924620      2.37451133
C       2.73993258      2.61426171      1.85391587
C       2.20996333      1.35140271      1.54467206
C      -1.22380454      2.78791765     -1.32054715
O      -0.63386372      3.80463998     -1.66621965
O      -2.36288262      2.76252488     -0.58836521
C      -2.79245878      4.03503904     -0.07235362
C      -3.64479161      3.77272774      1.16546061
O      -2.87516209      3.25384850      2.24831032
O      -2.15419373     -2.01707751     -1.56003415
C      -1.83688190     -3.31506841     -2.08289670
C      -2.72694152     -4.34684399     -1.39994814
O      -2.40464008     -5.65330771     -1.85955158
H      -2.69676411      0.55569970     -1.78303207
H      -1.85964937      0.13468711     -0.27976351
H      -0.49887450      1.40311038     -2.70953309
H       1.13470195      0.29376178     -1.22939622
H       1.30955181      2.03133571     -1.18479062
H      -0.65730369     -2.68104166      0.90922048
H       0.79525132     -4.68211663      0.71380678
H       3.25531511     -4.43237899      0.91123767
H       4.25456736     -2.25079655      1.33385097
H       4.86826446     -0.53956779      2.50528817
H       5.77210366      1.66335658      3.02607404
H       4.42692754      3.70714989      2.61849933
H       2.13777690      3.50919518      1.69884793
H      -1.93387713      4.65676263      0.19793672
H      -3.39249288      4.53017059     -0.84236347
H      -4.11406404      4.70192888      1.50562147
H      -4.43006089      3.04377620      0.94119801
H      -2.04805190      2.85816396      1.88408128
H      -2.00702261     -3.33219592     -3.16844822
H      -0.78112688     -3.55821190     -1.89570501
H      -3.78421216     -4.13996400     -1.61135534
H      -2.59118211     -4.30929115     -0.31111005
H      -3.01251852     -6.26917668     -1.41649434
