21
CC(CCl)OC(C)CCl
C      -1.59442220      0.60505365     -1.39304133
C      -1.18145844     -0.23972534     -0.18910480
C      -2.33316180     -0.30060548      0.81959827
Cl     -2.00181607     -1.50937482      2.09442972
O      -0.05565110      0.38632826      0.44149235
C       1.21682947     -0.00580918     -0.09147980
C       1.68818590     -1.25594064      0.64922344
C       2.21278481      1.13622022      0.13533051
Cl      1.85667624      2.51716503     -0.94277411
H      -0.78836823      0.65736241     -2.13170300
H      -1.81088269      1.63587914     -1.09114190
H      -2.47988096      0.18943722     -1.88393714
H      -0.93011355     -1.25325055     -0.52474788
H      -2.47497819      0.66065764      1.32290088
H      -3.26962122     -0.59753600      0.33860276
H       1.14296180     -0.22432492     -1.16379033
H       0.99454748     -2.08869366      0.49602057
H       2.67876922     -1.57016619      0.30606420
H       1.73044172     -1.07731386      1.72945924
H       2.16177713      1.51326645      1.16133754
H       3.23738067      0.82137059     -0.08273919
