20
COc1ccc(OC)c(Cl)c1
C       3.53404553      0.72076397     -0.82578452
O       2.66529617      0.73502864      0.30073336
C       1.36726352      0.36314137      0.08714129
C       0.55717381      0.39427973      1.22362158
C      -0.79483796      0.03896963      1.15571216
C      -1.35886459     -0.35528553     -0.05942651
O      -2.66857908     -0.72062924     -0.22723687
C      -3.51212266     -0.69646302      0.91626402
C      -0.53888830     -0.38466924     -1.19947612
Cl     -1.16412529     -0.86236816     -2.74260919
C       0.81430237     -0.02855422     -1.12911724
H       4.52446036      1.04074744     -0.48803865
H       3.63202808     -0.28997022     -1.23548572
H       3.19847032      1.42785014     -1.59159011
H       0.98379826      0.69960077      2.17703674
H      -1.37404867      0.08272828      2.07198479
H      -3.16419466     -1.40132763      1.67850350
H      -3.59780864      0.31678449      1.32232375
H      -4.51094828     -1.01379692      0.60150491
H       1.40757969     -0.06683029     -2.03606119
