43
CCOP(=O)(C(=O)c1c(C)cc(C)cc1C)c1ccccc1
C      -3.91246024     -3.31747225     -1.29455378
C      -3.25552183     -2.00788417     -1.66644762
O      -2.85215619     -1.35109923     -0.48118356
P      -1.73604299     -0.17271329     -0.62874839
O      -2.11119335      0.77907925     -1.74116309
C      -0.10595880     -0.95858817     -0.83200015
O      -0.04387961     -2.12534762     -1.20661128
C       1.14831631     -0.24194835     -0.52979724
C       1.56673084      0.81898644     -1.35773587
C       0.84721843      1.22507559     -2.61511669
C       2.71786228      1.54352503     -0.99856499
C       3.46129287      1.20108220      0.13480427
C       4.70503641      1.96240923      0.47957859
C       3.06337062      0.10256754      0.90699102
C       1.90211479     -0.62355283      0.59614423
C       1.55703330     -1.82320676      1.43092914
C      -1.63523665      0.54157344      0.99620205
C      -1.91408303     -0.21689285      2.14462822
C      -1.79723593      0.34574448      3.41587509
C      -1.40829235      1.67122809      3.55388181
C      -1.13863118      2.44068673      2.42100109
C      -1.25251994      1.88182140      1.14825753
H      -4.78227492     -3.14801448     -0.65437528
H      -4.23603975     -3.86015793     -2.18885345
H      -3.21827217     -3.94629567     -0.73077946
H      -2.39274368     -2.19202243     -2.31342714
H      -3.96289668     -1.37062269     -2.20052867
H       0.20960034      2.09934804     -2.42192418
H       1.57343948      1.49071772     -3.39671808
H       0.23454378      0.41249816     -3.02597936
H       3.04785966      2.37674297     -1.62010755
H       4.53942647      3.04080000      0.36848422
H       5.00165717      1.78734392      1.51895876
H       5.52866056      1.65349983     -0.17277380
H       3.66647652     -0.19178762      1.76347001
H       1.98831625     -2.72172115      0.98126035
H       1.95777709     -1.71995741      2.44621836
H       0.47761629     -1.96019520      1.52796197
H      -2.22156358     -1.25504173      2.05111402
H      -2.01128523     -0.25085827      4.29724866
H      -1.32083171      2.10909533      4.54162679
H      -0.84710652      3.47522712      2.52626669
H      -1.03812316      2.49632760      0.26801377
