26
NNC(=O)CCCCC(=O)NN
N      -5.10166066     -0.48175689     -0.08358784
N      -3.92791617     -0.03874289     -0.72955137
C      -2.77811472      0.18202804      0.02101922
O      -2.75036307      0.08931893      1.24537545
C      -1.58778043      0.56935620     -0.83617482
C      -0.28333605      0.68472401     -0.04797798
C       0.28393706     -0.68619269      0.34308460
C       1.58796592     -0.57114318      1.13189961
C       2.77803925     -0.17981222      0.27628079
O       2.75250921     -0.09012930     -0.94832333
N       3.92366734      0.05311519      1.02953579
N       5.14064871      0.32963466      0.37112293
H      -5.52894341      0.33572965      0.36381581
H      -4.80374108     -1.05292730      0.71887043
H      -3.88092544     -0.08490872     -1.74576217
H      -1.81735420      1.54436823     -1.28287455
H      -1.47751290     -0.15616894     -1.65020854
H      -0.43643906      1.29364252      0.85121918
H       0.44536813      1.21663233     -0.67029385
H       0.43765758     -1.29473390     -0.55627152
H      -0.44501554     -1.21851796      0.96475201
H       1.47716103      0.15185499      1.94812807
H       1.81853710     -1.54725383      1.57571248
H       3.94413059     -0.17380125      2.02207530
H       5.12117243     -0.18385342     -0.52048923
H       5.10830839      1.30953776      0.07169189
