25
OCC[C@@H]1CCCC[NH2+]1
O       2.30312779      1.62295796      0.03003542
C       2.63091582      0.55095503      0.91723908
C       1.75360041     -0.65787252      0.59764397
C       0.25886071     -0.31917402      0.58049753
C      -0.62571097     -1.55392483      0.37781631
C      -2.00215557     -1.22475784     -0.21488546
C      -2.40577614      0.22445252      0.03567068
C      -1.39321734      1.21852376     -0.52799322
N      -0.02579536      0.63243639     -0.53721355
H       3.01911949      2.28566739      0.13901565
H       2.46572395      0.89291843      1.94358436
H       3.68791785      0.29617072      0.79163799
H       2.04254932     -1.05465114     -0.38428229
H       1.95115497     -1.44431374      1.33528805
H      -0.01238196      0.19834095      1.50938229
H      -0.75509708     -2.05054906      1.34761930
H      -0.13317027     -2.28771085     -0.27257300
H      -1.97893566     -1.40473679     -1.29730913
H      -2.75473360     -1.90653913      0.19704483
H      -2.50539549      0.38418114      1.11701511
H      -3.39358504      0.42421636     -0.39478312
H      -1.62223960      1.48288301     -1.56489750
H      -1.35900052      2.13244941      0.07337745
H       0.69582126      1.38456401     -0.49004457
H       0.15840303      0.17351287     -1.43842527
