25
CC(=O)Oc1ccccc1/C=C/C(=O)O
C       2.42773554     -2.46693864     -0.54212000
C       1.80333354     -1.10805753     -0.65748095
O       1.42445808     -0.61288647     -1.71040976
O       1.74667438     -0.53667187      0.60826534
C       1.12559029      0.71799437      0.60939307
C       1.94223042      1.84713192      0.51198785
C       1.36322841      3.11340914      0.54302358
C      -0.01831234      3.24345835      0.68693554
C      -0.82717870      2.10735428      0.80216221
C      -0.26612472      0.82356426      0.76197591
C      -1.09935481     -0.37522270      0.92806603
C      -2.24733099     -0.56926292      0.26269394
C      -2.99972758     -1.81255950      0.46408406
O      -2.69176114     -2.75987649      1.16120203
O      -4.13674642     -1.78532128     -0.24835787
H       2.46531531     -2.93314591     -1.53083882
H       3.44759408     -2.37507861     -0.16045576
H       1.82427399     -3.09706763      0.11611957
H       3.01748537      1.74124014      0.40587074
H       1.98718004      3.99941965      0.45798787
H      -0.46881159      4.23276731      0.71692324
H      -1.89827457      2.24016752      0.93629604
H      -0.71529323     -1.13248082      1.60906752
H      -2.64842119      0.14583705     -0.44465846
H      -4.55776218     -2.64777363     -0.05207886
