23
COC(=O)CCCC(=O)OC
C      -4.26818540      1.11062255     -0.11409549
O      -3.42991490      0.02116150     -0.50202006
C      -2.20172288      0.02897634      0.08963948
O      -1.80844592      0.87234340      0.88215757
C      -1.40852369     -1.16673733     -0.38643480
C       0.00914871     -1.21640301      0.18231655
C       0.93447496     -0.17011000     -0.44287096
C       2.34199914     -0.27345452      0.09799945
O       2.75228179     -1.14900594      0.84637291
O       3.09378781      0.75116063     -0.39638912
C       4.44816180      0.74746275      0.05628121
H      -4.46180003      1.08085935      0.96273932
H      -3.81444221      2.06434546     -0.40127079
H      -5.22141048      1.00852455     -0.64009086
H      -1.94748834     -2.06420325     -0.06146900
H      -1.37409352     -1.15568118     -1.48134860
H       0.42240058     -2.21535419     -0.00674643
H      -0.01300875     -1.09016093      1.27202893
H       0.56417891      0.83828144     -0.23201569
H       0.97831369     -0.31293522     -1.52829505
H       4.95953417     -0.16245444     -0.27305784
H       4.95561422      1.60906432     -0.38631446
H       4.48914033      0.84369773      1.14580728
