12
CC(C)=CCl
C       1.07181494     -0.27084550     -0.85116608
C      -0.10446197      0.14988198     -0.01400391
C      -0.46079759     -0.80692320      1.09097111
C      -0.81429327      1.27371962     -0.19190421
Cl     -0.53176907      2.45466075     -1.39961253
H       1.31498964      0.43663863     -1.64805469
H       0.86976657     -1.23826607     -1.32299745
H       1.96238475     -0.37389690     -0.22218555
H      -1.32117039     -0.46350584      1.67528729
H      -0.71094235     -1.78908571      0.67665515
H       0.38304827     -0.92363514      1.77884879
H      -1.65856951      1.55125738      0.42816207
