24
C=COCCCCOC=C
C      -4.70904643     -0.30785202      0.52095327
C      -4.00955018     -0.35977109     -0.61805851
O      -2.65699711     -0.33402891     -0.80154545
C      -1.83897413     -0.23789593      0.36583153
C      -0.37957639     -0.22182352     -0.08053795
C       0.57269141     -0.15472327      1.11411560
C       2.03833722     -0.14816188      0.68356063
O       2.29952065      1.04936014     -0.04884768
C       3.56784917      1.23279315     -0.51892099
C       4.63882099      0.44146028     -0.39213658
H      -5.79373435     -0.33878367      0.49070242
H      -4.24666601     -0.23362030      1.49715855
H      -4.49736001     -0.43298191     -1.58481280
H      -2.06860293      0.68699719      0.90855464
H      -2.01660875     -1.10277392      1.01633089
H      -0.21942290      0.63053559     -0.75217638
H      -0.17269580     -1.11820880     -0.67856460
H       0.35994221      0.75538818      1.68806354
H       0.39722121     -1.01307726      1.77286972
H       2.24648334     -1.02752187      0.06213085
H       2.66939042     -0.17661401      1.57992427
H       3.61503799      2.17553361     -1.05468986
H       5.58542780      0.73893405     -0.83255470
H       4.61851257     -0.50316386      0.13659443
