13
C/C(=C\N=O)NO
C      -0.89874306     -1.33978848     -0.07958516
C       0.00848266     -0.12613224     -0.06500148
C      -0.40343219      1.08445711      0.37303123
N      -1.62806256      1.33415152      0.83587176
O      -1.80836910      2.51027825      1.17068976
N       1.29228315     -0.37130424     -0.55544040
O       2.31929850      0.50515858     -0.21046789
H      -0.96709920     -1.74264220     -1.09625986
H      -0.48958351     -2.11995368      0.57176699
H      -1.91885017     -1.13385452      0.25680934
H       0.30397627      1.91050871      0.35024757
H       1.56743808     -1.35444990     -0.47639779
H       2.62266114      0.84357107     -1.07526406
