31
CC(C)(C)OC(=O)c1cccc([N+](=O)[O-])c1C(=O)[O-]
C      -2.71998184     -0.75838890      1.41413043
C      -2.39691918     -0.29887364     -0.01199275
C      -3.23591071      0.91742456     -0.41870223
C      -2.69897178     -1.45235865     -0.98004790
O      -0.98636345     -0.03192601     -0.18422836
C      -0.35393031      0.88070551      0.58481210
O      -0.85772104      1.69503752      1.34307537
C       1.08194335      0.89905528      0.21646563
C       1.63836673      2.16217561     -0.06278730
C       2.96330369      2.27982943     -0.48338376
C       3.74364326      1.13522841     -0.61772659
C       3.18912854     -0.11972219     -0.31332096
N       4.07961236     -1.26885903     -0.40444650
O       4.55701331     -1.51727624     -1.52433475
O       4.43546693     -1.79600720      0.65973590
C       1.86331014     -0.26328401      0.11219544
C       1.31656366     -1.60271601      0.44482392
O       1.48518127     -2.49858052     -0.43237357
O       0.74926011     -1.71800208      1.56939805
H      -2.55943249      0.03847958      2.14658360
H      -2.07596122     -1.59304834      1.71104655
H      -3.76352243     -1.07985998      1.50132340
H      -2.93663606      1.28328805     -1.40736120
H      -4.30366883      0.67470722     -0.44562240
H      -3.10650124      1.75241794      0.27653569
H      -3.75289676     -1.74758906     -0.94560175
H      -2.08543024     -2.32964646     -0.74344061
H      -2.45133963     -1.17163610     -2.01046719
H       1.02313687      3.05454180      0.03752272
H       3.38068030      3.25811668     -0.70422118
H       4.77857670      1.21676684     -0.94118646
