32
CCOP(=O)(OCC)OCC(C)C
C      -3.01678581     -2.93670528     -1.08986998
C      -2.05351750     -2.35843009     -0.07423546
O      -1.96612188     -0.95944527     -0.27645198
P      -0.94034092     -0.15975774      0.67237527
O      -1.13530721     -0.37105087      2.14057413
O      -1.08823208      1.36428348      0.17483555
C      -2.28649095      2.03089370      0.52883816
C      -2.26435871      3.42102410     -0.07187753
O       0.50226160     -0.59389973      0.10533999
C       1.63226335     -0.04709439      0.76456320
C       2.90363010     -0.42003749     -0.00413396
C       4.14309365      0.04579747      0.75651110
C       2.89202059      0.17046479     -1.41584150
H      -3.11335324     -4.01874902     -0.96448982
H      -4.00633809     -2.47917384     -0.98706759
H      -2.67392677     -2.72809292     -2.10871268
H      -1.06398901     -2.81053578     -0.19478174
H      -2.41306176     -2.55691840      0.94032840
H      -2.35863729      2.09373870      1.61918316
H      -3.14608375      1.47036064      0.14807588
H      -1.39869165      3.98457360      0.29165889
H      -2.17501914      3.36854997     -1.16200457
H      -3.17519388      3.97053033      0.18166229
H       1.67121366     -0.45461426      1.78069367
H       1.52744156      1.04163036      0.83326797
H       2.94268897     -1.51215434     -0.10551043
H       5.05666527     -0.24372924      0.22654873
H       4.17910582     -0.40462150      1.75404773
H       4.15108074      1.13463511      0.87558771
H       2.82865974      1.26362796     -1.38780249
H       3.80445335     -0.10162656     -1.95713561
H       2.04087123     -0.20347352     -1.99417648
