45
C=CC(=O)OC(C)COCC(C)OCC(C)OC(=O)C=C
C       5.48066272      1.18029928     -2.58994384
C       5.60300358     -0.15372839     -2.57300803
C       5.24521553     -1.02290175     -1.43177356
O       5.33370314     -2.24068604     -1.49001469
O       4.83709821     -0.30044022     -0.36440964
C       4.45475623     -1.05801274      0.80222744
C       4.51156061     -0.09876133      1.98733824
C       3.05240965     -1.66508612      0.62945832
O       2.07730839     -0.62858447      0.47256916
C       0.75733141     -1.16036460      0.35562274
C      -0.25192184     -0.02684365      0.11894626
C       0.00232536      0.64679975     -1.23031115
O      -1.56485336     -0.60260717      0.17125629
C      -2.61082098      0.36331736      0.28737574
C      -3.94230639     -0.33756703      0.59989830
C      -4.31710518     -1.33659175     -0.49282157
O      -5.01593691      0.62306708      0.67257404
C      -5.10297347      1.32830204      1.82493024
O      -4.34807101      1.24585720      2.78139672
C      -6.24924823      2.26278823      1.80808208
C      -7.11614727      2.40345711      0.79563618
H       5.76656549      1.74831968     -3.46970792
H       5.09388599      1.73836528     -1.74198147
H       5.98583133     -0.68671998     -3.43655782
H       5.18550822     -1.85941368      0.97445572
H       5.52992410      0.28567856      2.11267620
H       3.86891094      0.77365853      1.82950818
H       4.21227957     -0.59506479      2.91554719
H       3.01985419     -2.30808146     -0.25625574
H       2.80144584     -2.26538126      1.51153945
H       0.71188846     -1.88204678     -0.47018557
H       0.49818933     -1.69818335      1.27598662
H      -0.13656048      0.71507344      0.91972307
H      -0.65939215      1.50671542     -1.37201441
H       1.03226042      1.00705953     -1.31276268
H      -0.19658909     -0.04588860     -2.05528201
H      -2.37009664      1.08097371      1.07948879
H      -2.70648203      0.92766136     -0.64729241
H      -3.86634149     -0.89392908      1.54356081
H      -4.42069709     -0.83588857     -1.46172980
H      -5.28652607     -1.79597428     -0.27127117
H      -3.57298701     -2.13271415     -0.58681023
H      -6.35267192      2.85681119      2.71046749
H      -7.04046557      1.82244749     -0.11877246
H      -7.93372452      3.11480900      0.86621995
