15
FC(F)(F)c1ccccc1
F       2.84628416     -0.76520752     -0.63846911
C       2.19049132      0.21259952      0.04804803
F       2.67399977      0.16352066      1.32012148
F       2.63342334      1.39088656     -0.47437647
C       0.68989680      0.06826547     -0.00204188
C      -0.13899748      1.19794652      0.08430827
C      -1.52791249      1.06134066      0.05913226
C      -2.10253440     -0.20409218     -0.04573097
C      -1.29135387     -1.33479400     -0.12323890
C       0.09783364     -1.20094786     -0.09827420
H       0.29708402      2.19226089      0.17005269
H      -2.16239317      1.94209773      0.12290364
H      -3.18449121     -0.30946173     -0.06473470
H      -1.74146731     -2.32151642     -0.20160235
H       0.72013689     -2.09289831     -0.15609779
