22
CC(Oc1ccc(Cl)cc1Cl)C(=O)O
C      -1.83405064     -2.09965606      0.04018290
C      -1.60591663     -0.59989667      0.15976244
O      -0.67672604     -0.18966355     -0.85601517
C       0.55715697      0.22241867     -0.42342529
C       1.27387268     -0.43970583      0.57676284
C       2.54570584      0.01238982      0.94131241
C       3.10596983      1.11519179      0.29763287
Cl      4.67173583      1.66224162      0.75274833
C       2.41151613      1.77134083     -0.71431133
C       1.14260015      1.31848766     -1.07699610
Cl      0.29812514      2.15275305     -2.33348377
C      -2.92946242      0.12869058     -0.08138475
O      -3.93236951     -0.03151105      0.60017773
O      -2.89685466      0.98385536     -1.13233910
H      -2.22696897     -2.35641545     -0.95040577
H      -0.89755883     -2.65262118      0.16106496
H      -2.54795670     -2.45499704      0.79001936
H      -1.27533893     -0.31369603      1.16563271
H       0.87615896     -1.31949019      1.07390462
H       3.09833837     -0.50588400      1.72202481
H       2.85478097      2.62633346     -1.21751182
H      -2.01275755      0.96983423     -1.56288314
