57
CCCC(=O)OC1CCC2C3CCC4=CC(=O)CCC4C3CCC12C
C       6.66429457      1.59219533      0.18452351
C       5.74336479      1.41517408     -1.01409272
C       5.16597158      0.00653603     -1.10686969
C       4.21736018     -0.30798622      0.02268095
O       4.43942570     -1.14391097      0.88740729
O       3.09651940      0.45639906     -0.07441187
C       2.09929400      0.26393705      0.93430881
C       1.43746803      1.60872882      1.25021712
C      -0.02694978      1.30215320      1.56432848
C      -0.17996357     -0.22397911      1.44935290
C      -1.58345318     -0.72049601      1.05071438
C      -2.66566546     -0.21872877      2.03103576
C      -4.05980735     -0.73347275      1.66480555
C      -4.34058357     -0.39635922      0.22584710
C      -5.32945255      0.44098091     -0.12736020
C      -5.45464150      0.91846383     -1.52623053
O      -6.38590049      1.65899298     -1.83133302
C      -4.36306382      0.54829019     -2.50232809
C      -3.83809500     -0.84601425     -2.20172165
C      -3.34817153     -0.99997612     -0.75232287
C      -1.94982378     -0.40196564     -0.43051246
C      -0.84758639     -0.91825513     -1.36872184
C       0.52779168     -0.35998937     -1.00092157
C       0.93408320     -0.64096780      0.46408303
C       1.30390476     -2.12498802      0.62367475
H       6.12364571      1.45744600      1.12628928
H       7.09295575      2.59950627      0.18473029
H       7.48893516      0.87302968      0.15550721
H       6.31237141      1.62383620     -1.92750566
H       4.93913207      2.15781646     -0.96143142
H       5.96922063     -0.73936501     -1.10258322
H       4.62263490     -0.12370434     -2.05006727
H       2.53879235     -0.11704242      1.86655726
H       1.93313754      2.09065627      2.10045954
H       1.51389812      2.30814576      0.40928524
H      -0.29441232      1.64807703      2.56877310
H      -0.66875873      1.83898981      0.85827956
H       0.05197006     -0.64394037      2.43991755
H      -1.56619108     -1.81638882      1.14636899
H      -2.42071743     -0.54063313      3.05030133
H      -2.68516725      0.87834484      2.04084658
H      -4.11428183     -1.81954118      1.80579140
H      -4.80116746     -0.28691768      2.33745661
H      -6.02477764      0.87230186      0.58357681
H      -3.56821173      1.29867935     -2.44278150
H      -4.78196129      0.56639635     -3.51427436
H      -3.06699633     -1.12463634     -2.92514949
H      -4.65933197     -1.56027657     -2.35874589
H      -3.30183976     -2.08267983     -0.56492654
H      -2.00610780      0.68841618     -0.55319996
H      -1.05665254     -0.61678124     -2.40044142
H      -0.82599988     -2.01400031     -1.35971064
H       0.51485479      0.71981339     -1.19553015
H       1.27630549     -0.77699137     -1.68664906
H       0.45309419     -2.78386232      0.42618574
H       1.64974428     -2.34028075      1.64093666
H       2.10556267     -2.40917585     -0.06596974
