34
CCOC(=O)c1cncn1C(C)c1ccccc1
C      -5.51952450      1.53432232     -0.16761659
C      -4.26333642      1.03396959     -0.85356428
O      -3.30299888      0.70662795      0.15713767
C      -2.11609943      0.24011580     -0.32286823
O      -1.85905199      0.09889646     -1.51099707
C      -1.22999136     -0.06265933      0.77121564
C      -1.47729489     -0.00883914      2.13240466
N      -0.39718023     -0.41896764      2.86270739
C       0.52055784     -0.71584884      1.97422624
N       0.08276519     -0.49825776      0.69273674
C       0.86508327     -0.74588406     -0.52764269
C       0.66973512     -2.19259125     -0.99310277
C       2.31625123     -0.29965908     -0.36394633
C       2.60692344      1.07778271     -0.36768338
C       3.91574249      1.53644417     -0.20952370
C       4.95654409      0.62762440     -0.04383967
C       4.68887865     -0.73881064     -0.03486347
C       3.37946377     -1.20080398     -0.19248059
H      -5.92189964      0.76973600      0.50515351
H      -6.28616268      1.79821045     -0.90143015
H      -5.29923337      2.41414823      0.44597492
H      -4.49579667      0.14191955     -1.44591720
H      -3.86141650      1.81707147     -1.50616220
H      -2.39501184      0.29361013      2.62238577
H       1.51271237     -1.08341972      2.20521313
H       0.45429230     -0.09682050     -1.30813243
H       0.98896124     -2.91395582     -0.23238678
H      -0.38693509     -2.39552663     -1.20088703
H       1.23349829     -2.39110602     -1.91106499
H       1.80836415      1.80798660     -0.49069884
H       4.12144351      2.60390645     -0.21293799
H       5.97574684      0.98396912      0.08099081
H       5.50211093     -1.44834097      0.09777762
H       3.21285878     -2.27485002     -0.17250333
