44
COCCc1ccc(OCC(O)CNC(C)C)cc1
C       6.22145310      0.44987778     -2.88112501
O       5.78383938     -0.33774714     -1.78201200
C       5.77909618      0.41352182     -0.56468896
C       5.24970425     -0.45436150      0.57878424
C       3.74332119     -0.58338811      0.56566321
C       2.95476098      0.15421403      1.45524282
C       1.56300763      0.03344562      1.43026107
C       0.93649070     -0.81851128      0.51824945
O      -0.42821998     -0.84058591      0.60146894
C      -1.12451496     -1.64216327     -0.36053000
C      -2.63321604     -1.49047215     -0.12220612
O      -2.95695055     -1.97321382      1.19463570
C      -3.09228787     -0.02242727     -0.24602804
N      -4.55548380      0.05130277     -0.13762003
C      -5.06675093      1.42097065     -0.05783634
C      -6.55457924      1.38326676     -0.41186451
C      -4.88282030      2.02931886      1.33397291
C       1.71701883     -1.55550802     -0.37081305
C       3.11096008     -1.43671473     -0.34696109
H       5.54486586      1.29516206     -3.03954899
H       7.24139075      0.80897695     -2.71357306
H       6.21389430     -0.17574663     -3.77764067
H       5.17393212      1.32019610     -0.68422174
H       6.81162910      0.70563665     -0.34048583
H       5.68994684     -1.45831671      0.53550011
H       5.55999652     -0.01385524      1.53423799
H       3.41394018      0.82687567      2.17555681
H       0.96298321      0.61125244      2.12868264
H      -0.84806980     -2.69369495     -0.21775455
H      -0.88012223     -1.31634503     -1.37842471
H      -3.17304045     -2.11721735     -0.84133628
H      -2.31733068     -1.55129426      1.79924001
H      -2.77568870      0.38618602     -1.21200344
H      -2.62838959      0.56539255      0.55274625
H      -4.84889078     -0.49507213      0.67670195
H      -4.56424964      2.05310989     -0.80028181
H      -7.12383054      0.77087652      0.29688432
H      -6.98018638      2.39266599     -0.40065031
H      -6.70898330      0.97138656     -1.41564442
H      -5.35851234      1.41472477      2.10655597
H      -5.33221280      3.02750939      1.37921468
H      -3.82503332      2.13799706      1.59207365
H       1.28034885     -2.23365386     -1.09583891
H       3.70678418     -2.01357757     -1.05279108
