19
OC(=S)COc1cc(Cl)c(Cl)cc1Cl
O       3.51860252      0.28254507      1.31828207
C       3.40108195     -0.20473153      0.07012556
S       4.78873089     -0.61934518     -0.73559197
C       2.00617366     -0.33097718     -0.48838175
O       1.09169316      0.12658713      0.50713060
C      -0.24660985      0.10241110      0.21559808
C      -0.78991898     -0.34041024     -0.99394185
C      -2.17758682     -0.32528570     -1.19494279
Cl     -2.76933949     -0.88922240     -2.71803455
C      -3.03099861      0.13356113     -0.18570787
Cl     -4.74729043      0.17707681     -0.37179230
C      -2.49732436      0.57719134      1.02422227
C      -1.11503832      0.56083902      1.22120470
Cl     -0.50423212      1.12143073      2.73917355
H       2.63938653      0.48868838      1.68623350
H       1.93176001      0.29386547     -1.38591365
H       1.81692027     -1.38563943     -0.71946466
H      -0.16078276     -0.70368226     -1.80099112
H      -3.15522725      0.93509776      1.81279216
