57
CCCCCCC(O)CCCCCCCCCCC(=O)O
C       8.17487996      2.66573699     -1.54333888
C       7.13730614      1.60734791     -1.88234210
C       6.16313085      1.38628798     -0.72420520
C       5.12028167      0.32225154     -1.07367917
C       4.19072783     -0.02937389      0.09331152
C       3.25746633      1.12073059      0.49265786
C       2.29219131      0.78358437      1.64015649
O       3.06190988      0.45051122      2.79269394
C       1.32712303     -0.35998218      1.29633368
C       0.19939415     -0.50122427      2.32691265
C      -0.74916018     -1.66852717      2.03400006
C      -1.56864895     -1.48345252      0.75403079
C      -2.58783819     -2.61300280      0.58452987
C      -3.35537098     -2.54995837     -0.73966098
C      -4.15559273     -1.26746623     -0.99280646
C      -5.23463667     -1.00532959      0.06057823
C      -6.03701032      0.27327759     -0.19948597
C      -6.90450478      0.20402288     -1.45558549
C      -7.77826807      1.42223011     -1.59226566
O      -7.78050836      2.41911510     -0.89140334
O      -8.61823783      1.32095996     -2.64163899
H       8.76529083      2.37064110     -0.67005364
H       7.69845234      3.62735383     -1.32733994
H       8.86039255      2.80771473     -2.38468886
H       6.58645655      1.91727424     -2.77797559
H       7.64847831      0.66827084     -2.12413531
H       5.66901605      2.33494422     -0.48758321
H       6.71936249      1.07706929      0.16884682
H       4.52419755      0.65397694     -1.93256919
H       5.63732931     -0.59447012     -1.38403229
H       4.79100765     -0.34587362      0.95428209
H       3.59204042     -0.89489221     -0.21207868
H       2.68172689      1.44662641     -0.38194675
H       3.86849809      1.97244069      0.81371176
H       1.72142835      1.69053648      1.87396447
H       2.46444025      0.44392582      3.55879215
H       1.87227202     -1.31034814      1.25676303
H       0.89676353     -0.17492887      0.30636671
H      -0.37340556      0.43256240      2.37884415
H       0.63010141     -0.66400424      3.32159551
H      -1.43483408     -1.77111269      2.88442696
H      -0.17631441     -2.60204171      1.97627979
H      -2.08338386     -0.51724413      0.79544945
H      -0.90596814     -1.46634853     -0.11795344
H      -2.06414646     -3.57653586      0.62576532
H      -3.28964873     -2.61106437      1.42625640
H      -4.03784475     -3.40790106     -0.78491315
H      -2.64426822     -2.68011707     -1.56518196
H      -4.62228215     -1.36307432     -1.97989459
H      -3.47866789     -0.40789361     -1.05474962
H      -5.91592610     -1.86279709      0.11634063
H      -4.76726746     -0.90603640      1.04674541
H      -5.35597004      1.13122005     -0.26380901
H      -6.67996641      0.45671764      0.67113337
H      -7.55324830     -0.67746431     -1.40753396
H      -6.27897883      0.14204474     -2.35141184
H      -9.11976732      2.16308970     -2.62562758
