12
OCc1cncs1
O      -2.19894522      0.63063024      0.52038242
C      -1.55625181     -0.25199557     -0.38888231
C      -0.09361276     -0.13385592     -0.16600756
C       0.67827967     -0.66839978      0.84684321
N       2.03004020     -0.38996041      0.78405802
C       2.26822576      0.35873393     -0.26956399
S       0.90761254      0.76472102     -1.23143632
H      -1.84156076      1.51992416      0.35299012
H      -1.85617327      0.01003202     -1.40830100
H      -1.90130396     -1.26996643     -0.18316024
H       0.30056162     -1.27274319      1.66362843
H       3.26312798      0.70287992     -0.52055076
