36
c1ccc(Nc2ccc(Nc3ccccc3)cc2)cc1
C       6.33571922     -0.58934040     -0.78005451
C       6.28571462      0.39563702      0.20204615
C       5.05605059      0.77818023      0.74583356
C       3.85900405      0.18176468      0.32275964
N       2.64533702      0.62956332      0.87288002
C       1.33200297      0.63700459      0.37522666
C       0.26278671      0.59480378      1.27733113
C      -1.06437079      0.56085394      0.82889794
C      -1.36444856      0.57314658     -0.53463831
N      -2.67574383      0.50457415     -1.03299832
C      -3.86340236     -0.01772371     -0.49187534
C      -3.88078903     -1.02118518      0.48323906
C      -5.08580986     -1.48418073      1.02088582
C      -6.29469703     -0.94072383      0.59522764
C      -6.29802323      0.06357018     -0.36840355
C      -5.09089190      0.52145822     -0.90439768
C      -0.29495564      0.60502341     -1.43683819
C       1.03233683      0.63392813     -0.98845211
C       3.92964271     -0.80106081     -0.67079463
C       5.15747180     -1.18878410     -1.21633229
H       7.28996000     -0.88959834     -1.20436857
H       7.20125822      0.87130997      0.54316741
H       5.03896992      1.56089375      1.49992049
H       2.73465930      1.01231869      1.80691798
H       0.44994551      0.57943103      2.34792820
H      -1.86142296      0.55458722      1.56716634
H      -2.78591069      0.89924856     -1.95982243
H      -2.95380993     -1.48208506      0.81315012
H      -5.07600093     -2.27275915      1.76858893
H      -7.23126923     -1.29948872      1.01342960
H      -7.23790468      0.49576387     -0.70108885
H      -5.11614441      1.31781926     -1.64382385
H      -0.48155367      0.59948948     -2.50762894
H       1.82821198      0.68406357     -1.72631437
H       3.02852385     -1.30475766     -1.00966727
H       5.18955345     -1.96274594     -1.97854377
