28
Nc1ccc(S(=O)(=O)Nc2ccc(I)nc2)cc1
N      -3.57379817     -1.60531805     -1.23564325
C      -2.77941393     -0.65070866     -0.59161553
C      -1.85455633      0.10231127     -1.32237528
C      -0.96901282      0.96937599     -0.67765378
C      -0.97010079      1.03776685      0.71677726
S       0.16243257      2.12300411      1.55410995
O       0.61532958      3.12179382      0.61131669
O      -0.44084149      2.49478155      2.81624135
N       1.44985214      1.09692634      1.93596756
C       2.08983276      0.37182763      0.89162911
C       2.06110949     -1.01942711      0.91118721
C       2.65038098     -1.73189847     -0.13368419
C       3.25241605     -1.02078171     -1.16325822
I       4.12970112     -2.06481901     -2.74204086
N       3.30298756      0.32838353     -1.20578456
C       2.72495152      0.99530684     -0.17800036
C      -1.86079148      0.26484450      1.46465924
C      -2.74363095     -0.59447667      0.80567875
H      -3.77731019     -1.38383687     -2.20596159
H      -4.41042205     -1.86205400     -0.72049821
H      -1.81909325      0.02329528     -2.40641655
H      -0.27656057      1.56523270     -1.26851260
H       1.32250660      0.64088319      2.83788969
H       1.57372747     -1.56035221      1.71671767
H       2.62616136     -2.81657972     -0.13398707
H       2.79707026      2.07784241     -0.24340203
H      -1.87127763      0.31605233      2.55072883
H      -3.41164982     -1.21937587      1.39351659
