14
NC(CS)C(=O)O
N       0.20450068      0.28558346     -1.68758985
C       0.17805059      0.33533905     -0.18783384
C      -0.02690659     -1.03621296      0.46674807
S       1.26515806     -2.22577831     -0.02976727
C      -0.95218109      1.28114290      0.24027236
O      -1.42467383      1.35523352      1.36275828
O      -1.35762554      2.06074198     -0.79673112
H       1.06970394     -0.20422694     -1.94744741
H      -0.52209405     -0.37468559     -1.99144758
H       1.11465537      0.79519389      0.14934148
H      -0.01067904     -0.95031491      1.55849202
H      -1.00034070     -1.45510794      0.18753958
H       2.27496331     -1.64958381      0.64075285
H      -0.81253111      1.78267567     -1.57653861
