30
O=C1/C(=C2/Nc3ccccc3C2=O)Nc2ccccc21
O       1.12463436      2.55865866     -0.12386951
C       1.47318070      1.40131644     -0.05513490
C       0.65828187      0.12941296      0.06720847
C      -0.66808519     -0.00538669     -0.07457828
N      -1.38660471     -1.19050706      0.14403671
C      -2.75192800     -0.87814218      0.14882980
C      -3.81568288     -1.72257454      0.39115808
C      -5.11198237     -1.20540203      0.26025058
C      -5.32693321      0.13249143     -0.12607968
C      -4.24876094      0.97722151     -0.39188506
C      -2.98372411      0.44125128     -0.25081542
C      -1.66862397      1.07014087     -0.44730541
O      -1.50061918      2.19579614     -0.86000501
N       1.55359327     -0.92085994      0.31999061
C       2.85578538     -0.43508457      0.14677756
C       4.04167981     -1.13514011      0.23007532
C       5.24054013     -0.42023479      0.10108350
C       5.23927732      0.97591263     -0.08912452
C       4.03834921      1.68349016     -0.15059601
C       2.87353061      0.95222844     -0.02436844
H      -1.03332529     -1.80378458      0.86893773
H      -3.66291680     -2.76032399      0.66648088
H      -5.96891476     -1.84902964      0.45051171
H      -6.34353016      0.50794964     -0.22383219
H      -4.38838566      2.00894076     -0.69613173
H       1.31978260     -1.81914910     -0.08598815
H       4.05568514     -2.20620372      0.39944850
H       6.19019461     -0.94910265      0.15800610
H       6.18415119      1.50737776     -0.18267776
H       4.01135107      2.75873692     -0.29065751
