42
CC1C(N)CN1c1cc2c(cc1F)c(=O)c(C(=O)O)cn2C1CC1
C      -2.92021527     -1.99356352      1.18578756
C      -3.09183796     -0.86062069      0.19060212
C      -4.47644308     -0.17498540      0.25258010
N      -5.20061635     -0.37371695     -1.00924759
C      -3.69087094      1.14277132      0.22187845
N      -2.53512737      0.39053950      0.66400412
C      -1.19915466      0.85311518      0.54781812
C      -0.14375036     -0.02941258      0.25892339
C       1.18824509      0.40922127      0.14831694
C       1.45201506      1.77586807      0.35674653
C       0.42542909      2.67494875      0.64859689
C      -0.88032205      2.20804161      0.74101801
F      -1.84155563      3.09717582      1.03547446
C       2.84759925      2.26853570      0.28400004
O       3.11848200      3.45966944      0.42381611
C       3.92859660      1.28654646      0.05843342
C       5.36337019      1.63711330      0.03897817
O       6.25315119      0.81535078     -0.12797434
O       5.62301277      2.94978188      0.22160242
C       3.56308382      0.01070304     -0.13603620
N       2.26517951     -0.46911529     -0.16516962
C       2.06324343     -1.92228895     -0.32718116
C       2.76450663     -2.72049302     -1.40090887
C       1.29014698     -2.48846258     -1.49359639
H      -3.20469260     -1.69494172      2.20090750
H      -1.88639457     -2.34906169      1.21782887
H      -3.54740284     -2.84486262      0.90057075
H      -2.73401786     -1.10624887     -0.81863752
H      -5.06541030     -0.34031193      1.16074213
H      -5.59657297     -1.30796907     -1.10733186
H      -5.98013756      0.27178970     -1.13465792
H      -4.01690032      1.89116216      0.94887870
H      -3.53566875      1.60320066     -0.76074402
H      -0.37011170     -1.07862774      0.11158342
H       0.62538337      3.72976104      0.81249561
H       4.81620214      3.50904231      0.33916583
H       4.31855229     -0.75644994     -0.29796290
H       1.94043786     -2.41891993      0.63353057
H       3.10987188     -3.71536808     -1.14459416
H       3.39405362     -2.20568063     -2.11731339
H       0.93647415     -1.80656509     -2.25847327
H       0.63016621     -3.32667167     -1.30445100
