39
C=C(C)C(=O)OCC[N+](C)(C)CCCS(=O)(=O)[O-]
C       4.33205684     -0.81171364     -0.80913171
C       4.15798795     -0.04387035      0.28335716
C       5.24453056      0.17555187      1.29183978
C       2.87047216      0.65616188      0.56555556
O       2.69927216      1.39534834      1.52621135
O       1.91208447      0.33709856     -0.34460724
C       0.69506843      1.10118968     -0.25310990
C      -0.20521490      0.64526164      0.91036280
N      -0.96464152     -0.70663117      0.69230299
C      -1.64841265     -1.09480770      1.99184160
C       0.02196093     -1.81458880      0.32320330
C      -1.99497112     -0.60422278     -0.46611921
C      -3.16398058      0.33029347     -0.15361783
C      -4.01082742      0.67855070     -1.37879507
S      -3.03129514      1.30864708     -2.71908109
O      -2.49676322      0.07840955     -3.30024006
O      -3.99464054      2.03356139     -3.53029655
O      -2.03629992      2.12291187     -2.01894679
H       5.29002545     -1.29620389     -1.00497982
H       3.54821173     -0.95928551     -1.55422738
H       5.54249879      1.22189506      1.31503968
H       4.90860365     -0.11693618      2.29227572
H       6.13007026     -0.41497960      1.06402084
H       0.20577198      1.03580481     -1.21881905
H       0.95708878      2.15319885     -0.11795937
H      -0.95896300      1.40610096      1.12389473
H       0.38439305      0.49440843      1.82195685
H      -2.27748628     -0.26724198      2.32508926
H      -2.24688249     -1.99328761      1.81741193
H      -0.87779908     -1.29434568      2.74223385
H       0.41437069     -1.62508152     -0.67876285
H      -0.51647726     -2.77030458      0.32819635
H       0.82228428     -1.82942760      1.06837694
H      -2.37295942     -1.61719642     -0.63549806
H      -1.40541809     -0.32115721     -1.32945899
H      -3.81804889     -0.13142448      0.59303876
H      -2.81537198      1.26424979      0.28528489
H      -4.72662804      1.45994498     -1.10460713
H      -4.57367060     -0.18588219     -1.74323624
