54
CC(=O)O[C@H]1CC[C@@]2(C)C(=CC[C@H]3[C@@H]4CCC(=O)[C@@]4(C)CC[C@@H]32)C1
C       7.23489239      0.61556891      0.67737701
C       5.88671756      0.83289592      0.06163476
O       5.60366061      1.77347401     -0.66579329
O       5.04013220     -0.16408809      0.43702186
C       3.69996330     -0.08627603     -0.08883452
C       3.11263327     -1.49646495     -0.02670333
C       1.65271241     -1.51641955     -0.47685567
C       0.72525773     -0.54424235      0.31014599
C       0.55065989     -1.05923267      1.75890246
C       1.38930934      0.83874597      0.37465789
C       0.72981004      1.98054115      0.10750175
C      -0.72011733      2.06583242     -0.24942486
C      -1.49509406      0.76875111      0.02471278
C      -2.84021918      0.76997539     -0.70561902
C      -3.83224284      1.90093249     -0.45731181
C      -5.09950411      1.40020754     -1.16618085
C      -4.93732635     -0.11038716     -1.13013490
O      -5.75849741     -0.89641677     -1.58338378
C      -3.64956751     -0.51175148     -0.43342203
C      -4.00975492     -0.77797764      1.03943741
C      -2.87944908     -1.67850924     -1.04270358
C      -1.47610119     -1.78935650     -0.42070467
C      -0.66268699     -0.46364707     -0.44322170
C       2.85701386      0.88119764      0.74865274
H       7.15219917      0.63598287      1.76691154
H       7.64721207     -0.33862904      0.33989777
H       7.91006111      1.41686070      0.36365366
H       3.72692130      0.23471231     -1.13902917
H       3.20974316     -1.90342076      0.98748241
H       3.70451766     -2.16525068     -0.66417381
H       1.28370936     -2.54568378     -0.39377498
H       1.62690751     -1.26476948     -1.54591518
H       0.22550204     -2.10435545      1.78036884
H      -0.18328499     -0.46718980      2.31518875
H       1.48416314     -1.02081425      2.33024549
H       1.25884732      2.93167983      0.14501370
H      -1.17617653      2.88280979      0.32264098
H      -0.79053082      2.34221813     -1.30880512
H      -1.66944581      0.70566872      1.10495278
H      -2.61048961      0.81217860     -1.78491929
H      -3.49760940      2.85487710     -0.87656328
H      -4.01314524      2.05214449      0.61241688
H      -5.12253848      1.72806096     -2.20940256
H      -6.00443671      1.71066125     -0.63964832
H      -4.63292775      0.01516117      1.46668074
H      -3.13020309     -0.88251404      1.68007252
H      -4.58938039     -1.70508402      1.12556455
H      -3.42305764     -2.61996864     -0.89704528
H      -2.78681942     -1.54980413     -2.12898756
H      -0.92676371     -2.56917986     -0.96006905
H      -1.58992561     -2.14942017      0.60595723
H      -0.43734085     -0.28359478     -1.50731623
H       2.97054382      0.64330887      1.81393492
H       3.26154675      1.89565228      0.64491642
