11
CC(Cl)(Cl)C(=O)O
C       1.33295758      0.16444559      0.54023198
C       0.06230024     -0.67710091      0.55380310
Cl      0.15921713     -1.95173584     -0.70040301
Cl     -0.09797649     -1.45592656      2.15996482
C      -1.19511857      0.15222107      0.27092653
O      -2.30091632      0.03663320      0.77995213
O      -1.03142288      1.08256897     -0.70175139
H       1.50739529      0.61976554     -0.44154483
H       2.21785531     -0.43450777      0.78481670
H       1.26987393      0.98426345      1.26541904
H      -1.92416522      1.47937327     -0.80183215
