27
O=S(=O)(c1ccccc1O)c1ccccc1O
O      -0.06327031      0.21096678      2.79078139
S       0.14065439     -0.62556630      1.61855634
O       0.47289041     -2.03274466      1.77651889
C      -1.33347504     -0.54184897      0.64603906
C      -1.96372396      0.70237073      0.50540307
C      -3.11855291      0.80910223     -0.26937311
C      -3.64167013     -0.32051344     -0.89756844
C      -3.01545110     -1.55933985     -0.74721582
C      -1.86470588     -1.67606936      0.03082604
O      -1.33527058     -2.93249594      0.11618505
C       1.42877033      0.11800173      0.66266830
C       1.94013910     -0.59760697     -0.42888501
C       2.94431688     -0.03427547     -1.21602443
C       3.43610936      1.23482982     -0.91301101
C       2.92989444      1.94000541      0.18057191
C       1.93095429      1.38153123      0.97644474
O       1.51072019      2.15232708      2.02309758
H      -1.56591401      1.59076394      0.99229359
H      -3.61226899      1.77161899     -0.38350831
H      -4.54191129     -0.23967915     -1.50237446
H      -3.43061311     -2.43871063     -1.23430059
H      -0.64682023     -2.97028522      0.81611868
H       1.56560250     -1.58961832     -0.67422000
H       3.34509572     -0.58358511     -2.06505732
H       4.21894087      1.67620614     -1.52548242
H       3.32084372      2.92712821      0.41647667
H       0.94871533      1.62748709      2.63464134
