13
CC(=O)NC(N)=O
C      -1.87901717     -0.48413642      0.20283906
C      -1.07791417      0.77544601      0.01165807
O      -1.60048774      1.83589467     -0.33209953
N       0.27777696      0.71949419      0.20874462
C       1.06572229     -0.32874175     -0.18335722
N       2.39451392     -0.02867554     -0.11913658
O       0.69825735     -1.44209816     -0.52560243
H      -1.94499342     -1.02699083     -0.74318067
H      -2.88690052     -0.21745327      0.53474833
H      -1.43383694     -1.11924360      0.97345024
H       0.70124376      1.61756685      0.02832309
H       2.70164431      0.53447743      0.66232711
H       2.98399135     -0.83553958     -0.29416709
