46
O=C1CCCCCCCCCCOCCCCO1
O       3.17267176      2.61896052     -0.88695004
C       2.35956497      2.38629338     -0.00168798
C       1.12761391      3.22203294      0.24309826
C      -0.14934876      2.38207447      0.27368610
C      -1.38881534      3.25033425      0.04334136
C      -2.72726314      2.50858943      0.16125866
C      -2.85689005      1.29626957     -0.76820352
C      -2.61936087     -0.02239766     -0.02668616
C      -2.29220087     -1.16622697     -0.98770491
C      -2.15856306     -2.49265794     -0.23300878
C      -1.28782171     -3.53034248     -0.95351226
C       0.18286223     -3.12400432     -1.07151875
O       0.65145098     -2.70277292      0.20669229
C       1.88956985     -2.00029800      0.13626368
C       2.18794231     -1.45980772      1.53077662
C       3.50116889     -0.68277191      1.63545911
C       3.59849473      0.52654365      0.70836550
O       2.45890959      1.37361179      0.90147916
H       1.25791120      3.78019252      1.17636818
H       1.07216432      3.95509336     -0.57087847
H      -0.22501662      1.87227994      1.24154246
H      -0.09050071      1.60227927     -0.49450025
H      -1.39093203      4.07822279      0.76333699
H      -1.32641646      3.70531635     -0.95345554
H      -2.90124735      2.21971308      1.20473195
H      -3.51836939      3.22503693     -0.09428456
H      -2.18116498      1.39727204     -1.62534597
H      -3.87357972      1.27105836     -1.18052095
H      -1.79020284      0.08360863      0.68210206
H      -3.51031368     -0.26935447      0.56369487
H      -3.07416632     -1.25996308     -1.75059088
H      -1.36545785     -0.91470493     -1.51266779
H      -1.75610245     -2.32122091      0.77273898
H      -3.16127383     -2.91353104     -0.08647921
H      -1.69357554     -3.74596734     -1.94823234
H      -1.34180690     -4.46059465     -0.37416117
H       0.78202463     -3.97665600     -1.40954028
H       0.29408519     -2.31951090     -1.80638535
H       2.67875473     -2.68382172     -0.19479572
H       1.79791203     -1.17741275     -0.58024992
H       2.21210498     -2.29699535      2.24019578
H       1.35093009     -0.83058266      1.85992805
H       4.34625431     -1.35370182      1.44257724
H       3.59673666     -0.33639657      2.67211161
H       3.65377463      0.19520027     -0.33511933
H       4.50748848      1.09171059      0.94516106
