20
Oc1cc(O)c2ccccc2c1
O      -3.39553159     -1.00709738     -0.69545052
C      -2.15381769     -0.49598790     -0.45215529
C      -2.00078935      0.88124444     -0.52360713
C      -0.74661363      1.43858707     -0.28104113
O      -0.58962361      2.79985721     -0.35035451
C       0.36702038      0.63265632      0.03474228
C       1.64806931      1.16490594      0.28536377
C       2.72768439      0.33648466      0.59514016
C       2.54763102     -1.04063484      0.66042897
C       1.28853059     -1.59086450      0.41619181
C       0.19089951     -0.77086456      0.10296529
C      -1.07747270     -1.32358407     -0.14319001
H      -3.35685371     -1.97428075     -0.61200084
H      -2.85941333      1.49781911     -0.76670838
H      -1.44553521      3.19936335     -0.57608682
H       1.80549995      2.24087857      0.23816365
H       3.70593184      0.77015212      0.78442025
H       3.38670816     -1.68790411      0.90144720
H       1.17122792     -2.67078796      0.47282850
H      -1.21355225     -2.39994271     -0.09109724
