26
CCCc1ccc(O)c(OC)c1
C       3.89269505      0.79328702     -0.11124149
C       2.48873948      0.38963542     -0.53269415
C       1.72200933     -0.25331165      0.62346297
C       0.32711318     -0.65695112      0.21072393
C       0.08731201     -1.93960607     -0.30412849
C      -1.19576857     -2.31055701     -0.70171386
C      -2.23338066     -1.39533731     -0.58745226
O      -3.48451898     -1.78356335     -0.98533665
C      -2.02377149     -0.10670018     -0.08398184
O      -3.14324228      0.68444692     -0.03503267
C      -2.96867659      2.00227014      0.47208756
C      -0.73639488      0.25871137      0.31270828
H       4.42393922      1.25075842     -0.95172367
H       4.46786171     -0.07681804      0.22104652
H       3.86288542      1.51934061      0.70746210
H       2.55367631     -0.30760593     -1.37688332
H       1.95382541      1.27617047     -0.89453130
H       1.66337430      0.44028873      1.47193359
H       2.26236458     -1.13439650      0.99243972
H       0.89995221     -2.65631609     -0.39893512
H      -1.38617904     -3.30284822     -1.09875378
H      -4.04961362     -1.00342634     -0.82335798
H      -2.62987051      1.98303542      1.51318673
H      -2.28408092      2.58002197     -0.15765702
H      -3.94266653      2.50047505      0.44851068
H      -0.52758413      1.24899627      0.70414313
