32
O=C(Oc1ccc2c(c1)OCCC2=O)c1ccccc1
O       1.09355919      0.60419880      1.54143158
C       1.68901004      0.28536632      0.52274834
O       1.15835615     -0.33404136     -0.59341661
C      -0.20929384     -0.58679823     -0.47486167
C      -0.62699812     -1.84333125     -0.03497413
C      -1.99213231     -2.11911312      0.03887798
C      -2.91654604     -1.13564815     -0.33247409
C      -2.48482250      0.12135626     -0.76906186
C      -1.12246234      0.39287344     -0.86468743
O      -3.34126720      1.12217064     -1.14898314
C      -4.62461194      1.00414271     -0.52651342
C      -5.26609821     -0.33398224     -0.82890957
C      -4.36553881     -1.42259778     -0.31572984
O      -4.79161630     -2.51457000      0.04568210
C       3.14574092      0.52569304      0.32174583
C       3.86077532      1.13788264      1.36122521
C       5.22800239      1.38700241      1.22655797
C       5.88941183      1.02682920      0.05376320
C       5.18699637      0.41792319     -0.98553341
C       3.81852383      0.16664024     -0.85510761
H       0.09985856     -2.59973030      0.24637227
H      -2.33274526     -3.09658298      0.37348621
H      -0.77905756      1.35934575     -1.21962946
H      -5.25222315      1.81062130     -0.92032025
H      -4.51989398      1.17326704      0.55351201
H      -5.39456586     -0.48113135     -1.90639902
H      -6.23811965     -0.40424614     -0.33135199
H       3.35506358      1.42380875      2.28215019
H       5.77563306      1.86196706      2.03709910
H       6.95436272      1.22117955     -0.05051360
H       5.70596839      0.13831907     -1.89952059
H       3.29673073     -0.30881449     -1.68182064
