47
CCN(CC)CC(OC(=O)c1ccc([N+](=O)[O-])cc1)c1ccccc1
C      -3.61771615     -1.53332883      2.12250283
C      -2.20170956     -1.80803187      1.62447466
N      -1.78305556     -1.08978490      0.40919816
C      -2.59840901     -1.39590891     -0.77782207
C      -2.55208267     -2.86625650     -1.18159574
C      -1.69067726      0.37242893      0.64498873
C      -0.77787801      1.14090034     -0.35374104
O       0.56369136      0.61797557     -0.26493438
C       0.96205362     -0.18254552     -1.27912962
O       0.35029634     -0.42291554     -2.30777864
C       2.30618454     -0.75376904     -0.98509210
C       2.87674249     -1.62153614     -1.92979696
C       4.13523701     -2.18942845     -1.70571413
C       4.82810764     -1.88665587     -0.52658582
N       6.14969775     -2.48026824     -0.28464798
O       6.60948570     -3.23648679     -1.15181824
O       6.72660708     -2.18925515      0.77280054
C       4.26992333     -1.02202622      0.42478977
C       3.01016835     -0.45819248      0.19273442
C      -0.72621339      2.62084461     -0.00160861
C      -0.00544601      3.08412577      1.11122515
C       0.01698081      4.44293885      1.42979814
C      -0.68113423      5.35557077      0.64226140
C      -1.40160084      4.91115179     -0.46426929
C      -1.42560807      3.55241840     -0.78464820
H      -3.79759868     -2.09165518      3.04744664
H      -4.37244194     -1.85142538      1.39740761
H      -3.77164787     -0.47311208      2.34428310
H      -1.49711649     -1.57152960      2.43256559
H      -2.08182835     -2.88694965      1.47290233
H      -3.64043778     -1.08514647     -0.63817110
H      -2.22647575     -0.83100827     -1.63826965
H      -3.05115575     -3.00251476     -2.14689817
H      -3.06465429     -3.50580068     -0.45695330
H      -1.51913067     -3.21412243     -1.28771042
H      -1.26676581      0.52374704      1.64712875
H      -2.69171908      0.82337737      0.65573449
H      -1.16994387      1.05270013     -1.37291969
H       2.33883897     -1.86020553     -2.84689243
H       4.55422469     -2.85950119     -2.45415780
H       4.79683910     -0.77833285      1.34561037
H       2.58881522      0.21007008      0.94077499
H       0.54710046      2.38547376      1.73586017
H       0.58083884      4.78948810      2.29197967
H      -0.66209586      6.41377934      0.88945403
H      -1.94435209      5.62364205     -1.08030722
H      -1.99293828      3.22706164     -1.65445892
