31
CCC(C)C1(CC)C(=O)[N-]C(=O)NC1=O.[Na+]
C      -2.81995824     -0.08939294     -1.72393067
C      -1.61458290     -0.64447360     -0.97450218
C      -0.76987679      0.44584907     -0.25903023
C      -1.60212049      1.11853405      0.84704760
C       0.62546112     -0.11751196      0.22686437
C       1.45821255      0.90458530      1.05963504
C       1.73956107      2.23820579      0.37514091
C       1.47512346     -0.50607563     -1.00634302
O       1.34768541      0.11115136     -2.06596195
N       2.41422632     -1.43302382     -0.81380081
C       2.19516104     -2.42971320      0.03419914
O       3.00658760     -3.31950348      0.29158523
N       1.00062248     -2.46188471      0.70174912
C       0.39223383     -1.32030163      1.12349775
O      -0.24601264     -1.29391214      2.17662699
Na      0.00000000      0.00000000      0.00000000
H      -2.51966712      0.69328991     -2.42749660
H      -3.30500251     -0.88827296     -2.29443319
H      -3.56665758      0.32325545     -1.03983952
H      -0.99628820     -1.18259834     -1.70136601
H      -1.96680346     -1.38869133     -0.25041378
H      -0.56945988      1.22973584     -1.00224820
H      -1.03075767      1.86958759      1.39747109
H      -2.46007081      1.64680224      0.41834012
H      -1.99388536      0.39156605      1.56391920
H       2.42516670      0.45799545      1.32964316
H       0.96462858      1.10359980      2.01909310
H       0.81967675      2.77220106      0.12356821
H       2.31977110      2.88140299      1.04529724
H       2.32538441      2.10628300     -0.53884436
H       0.95164125     -3.21868918      1.36453224
