12
O=c1cccc[nH]1
O      -1.01467154      2.42915630      0.17562353
C      -0.53405270      1.30511173      0.09522465
C      -1.39519333      0.10872096     -0.09762387
C      -0.83269976     -1.10591536     -0.18113136
C       0.60037233     -1.26340741     -0.08566491
C       1.37753444     -0.18707214      0.08802197
N       0.81729414      1.06208295      0.17532739
H      -2.46152141      0.27581495     -0.16342176
H      -1.44041866     -1.99348033     -0.32176712
H       1.02263731     -2.26012152     -0.15726176
H       2.45784883     -0.24832809      0.16601966
H       1.40287037      1.87743795      0.30665360
