31
CC(C)C1(C(C)C)C(=O)NC(=O)NC1=O
C       0.93737060      2.03847746     -1.27471884
C      -0.24576479      1.44443339     -0.48784958
C      -0.65108153      2.44711894      0.60306636
C       0.03204637     -0.01921422      0.03209844
C      -1.14774691     -0.60894107      0.89818102
C      -2.53009536     -0.53981333      0.23177922
C      -0.89878529     -2.06161338      1.34497137
C       0.22536787     -0.91119296     -1.19832084
O      -0.53759033     -0.91261139     -2.16280216
N       1.30346157     -1.74579446     -1.19379736
C       2.46427891     -1.47748058     -0.54548016
O       3.49473709     -2.09530040     -0.79018192
N       2.43007522     -0.49268115      0.38661700
C       1.27996828      0.00865355      0.92026809
O       1.28992392      0.46154114      2.06356398
H       1.24097528      1.39024819     -2.10208553
H       0.65830744      3.00526862     -1.70889298
H       1.80796083      2.20786627     -0.63304339
H      -1.08289681      1.40148591     -1.19742082
H      -0.90132774      3.41476879      0.15291234
H      -1.53405015      2.11946698      1.15719717
H       0.15809305      2.62377425      1.31754677
H      -1.21872739     -0.02152632      1.82340070
H      -2.58553607     -1.16837813     -0.66168877
H      -3.30185864     -0.89470606      0.92462879
H      -2.80276041      0.48071076     -0.04792487
H       0.05300073     -2.16606638      1.87422104
H      -0.89831281     -2.75325702      0.49644542
H      -1.68706964     -2.38846496      2.03260790
H       1.39892697     -2.34633228     -2.00181963
H       3.24910976     -0.44044016      0.97747441
