26
CCOC(=O)C1OC1c1ccccc1
C      -5.11710586     -0.17388788      0.97058996
C      -4.08208227      0.50711550      0.09654787
O      -2.79975835     -0.04948708      0.40501138
C      -1.77497703      0.49214519     -0.30445323
O      -1.87019309      1.35468478     -1.16601317
C      -0.48268630     -0.11222242      0.05990530
O       0.01162650      0.23667187      1.36276186
C       0.73246920      0.77359752      0.23907220
C       2.09961632      0.21716684     -0.05864463
C       2.99211068     -0.13752048      0.96634287
C       4.26169911     -0.64732692      0.68257310
C       4.66692003     -0.80905623     -0.63908550
C       3.80428931     -0.45987995     -1.67406438
C       2.53558044      0.04901798     -1.38410978
H      -5.12012737     -1.25455433      0.79378983
H      -4.88465110     -0.02527519      2.03030227
H      -6.11738379      0.21977457      0.76971504
H      -4.07730932      1.58394159      0.29969607
H      -4.31668502      0.33177856     -0.95936715
H      -0.33610556     -1.13206938     -0.27058589
H       0.60448118      1.83733823      0.05577261
H       2.68963824     -0.01650072      2.00520448
H       4.93156191     -0.91627592      1.49513345
H       5.65443419     -1.20439103     -0.86179057
H       4.11782878     -0.58039974     -2.70779150
H       1.87680917      0.32229567     -2.20651249
