67
CCCCCCCC/C=C\CCCCCCCCNCCCN
C      -9.83715731     -1.89744545      1.08456024
C      -9.69043177     -0.38339778      1.12283389
C      -8.46133262      0.09149329      1.90220099
C      -7.13636335     -0.31294798      1.24858311
C      -5.94405520      0.27691536      2.00768389
C      -4.58826475     -0.19338854      1.47279257
C      -4.29386898      0.29002314      0.05052911
C      -2.88512274     -0.11442795     -0.39003503
C      -2.60240843      0.34296827     -1.79314952
C      -1.74200408      1.29755147     -2.18302822
C      -0.89004591      2.17436760     -1.30838139
C       0.60701377      1.87245101     -1.43874378
C       0.98705491      0.49489927     -0.88423846
C       2.49973515      0.25076138     -0.84133485
C       3.13916488      0.16920977     -2.23018575
C       4.64866361     -0.09491233     -2.18652007
C       5.00479422     -1.49282153     -1.66994871
C       6.49231530     -1.83932248     -1.82781682
N       7.43169042     -0.94386225     -1.15178657
C       7.34831659     -1.02918410      0.30923351
C       8.44528459     -0.15999254      0.93141236
C       8.48369756     -0.26196029      2.45669344
N       7.27748669      0.27944877      3.07384265
H      -9.83965585     -2.31864649      2.09546828
H      -9.02790683     -2.36568732      0.51612324
H     -10.78153149     -2.16987622      0.60106328
H      -9.65645355      0.00613991      0.09815579
H     -10.58576844      0.04088299      1.59300035
H      -8.50428375      1.18590692      1.97725979
H      -8.50333560     -0.29757069      2.92738128
H      -7.12971409      0.03556455      0.20950543
H      -7.04446640     -1.40503950      1.22887312
H      -6.01249277     -0.01407207      3.06349052
H      -5.99040509      1.37261068      1.97844722
H      -3.80785551      0.18176760      2.14706022
H      -4.53844835     -1.28865586      1.51053317
H      -4.39643063      1.38177379      0.00622536
H      -5.02593379     -0.13236989     -0.64798281
H      -2.14679964      0.27381622      0.31854786
H      -2.78883976     -1.20691698     -0.36160074
H      -3.15370681     -0.18624058     -2.57032440
H      -1.65052181      1.48666159     -3.25255866
H      -1.06416646      3.21387661     -1.61356159
H      -1.18933073      2.12047665     -0.25695899
H       1.16351063      2.64478851     -0.89350778
H       0.90150831      1.95211467     -2.49151167
H       0.51133248     -0.29649184     -1.47489642
H       0.59902611      0.40391492      0.13803034
H       2.66800706     -0.68891320     -0.30371127
H       2.98337908      1.04159613     -0.25550883
H       2.64622292     -0.61068523     -2.82309042
H       2.98367688      1.11573543     -2.75990051
H       5.12916305      0.67245668     -1.56887816
H       5.04465462      0.02033032     -3.20317640
H       4.42486928     -2.23880061     -2.22835843
H       4.70991162     -1.59759073     -0.62051356
H       6.73922594     -1.82925276     -2.89654833
H       6.66198080     -2.87068641     -1.49446080
H       7.27042398      0.01806201     -1.44605815
H       6.36731171     -0.68853953      0.65642800
H       7.48511520     -2.06836524      0.63136285
H       8.31007836      0.88804165      0.63300342
H       9.42284207     -0.47433378      0.54284296
H       9.35263920      0.28896759      2.83321146
H       8.60501389     -1.30789982      2.75899139
H       7.19926478      1.27234084      2.85483703
H       7.36472684      0.22134520      4.08806892
