22
O=c1c2cnn(CO)c2ncn1CO
O       2.02773674      0.13160909      1.89470168
C       1.34834216      0.04420017      0.87753519
C      -0.07678619     -0.12218601      0.90232004
C      -1.04098621     -0.26134575      1.90804976
N      -2.27792812     -0.38665813      1.40524966
N      -2.07856137     -0.32363509      0.05596819
C      -3.21041926     -0.41549421     -0.85457734
O      -4.40053707     -0.73551725     -0.12877968
C      -0.76562728     -0.16176788     -0.28354407
N      -0.26152108     -0.05483805     -1.53505164
C       1.03248483      0.08510782     -1.54334041
N       1.85625652      0.11550897     -0.42085247
C       3.27403222      0.26032335     -0.59421338
O       3.56935715      1.64207701     -0.67394360
H      -0.90107825     -0.27678452      2.98188930
H      -3.33184504      0.55497364     -1.34230906
H      -3.00656438     -1.20478053     -1.58236535
H      -4.13352971     -0.68901811      0.81526053
H       1.56756048      0.19053095     -2.50179993
H       3.83475642     -0.18383308      0.23422808
H       3.59049128     -0.21165467     -1.52949190
H       3.38436614      2.00318229      0.21153990
