42
COc1ccc(N2CCN(c3ccc([N+](=O)[O-])cc3)CC2)cc1
C      -7.50140742     -0.25518883      0.11277427
O      -6.62549881      0.75486804     -0.37129968
C      -5.28546324      0.51810491     -0.24992426
C      -4.69515412     -0.61375759      0.29909171
C      -3.29614958     -0.72225648      0.35990218
C      -2.44261182      0.28340906     -0.12111524
N      -1.06516192      0.16480433     -0.05851540
C      -0.40954647     -0.74376661      0.89719298
C       1.00723588     -0.25863363      1.28714098
N       1.87087781     -0.05551977      0.10965874
C       3.24882832     -0.14854722      0.18807047
C       3.93070258     -0.02783025      1.41221235
C       5.32633396     -0.12079595      1.50259904
C       6.07577459     -0.34238345      0.34692997
N       7.53703140     -0.44262354      0.42918126
O       8.16319619     -0.62637690     -0.62469657
O       8.06065958     -0.33788814      1.54783156
C       5.43691019     -0.46914834     -0.88676039
C       4.04033366     -0.37110972     -0.95316202
C       1.18574978      0.28270325     -1.15190843
C      -0.17823758      0.97293449     -0.91196373
C      -3.06750727      1.41183250     -0.67133588
C      -4.46275480      1.53015871     -0.73451324
H      -7.36652927     -1.19195711     -0.43804289
H      -8.52812376      0.08429432     -0.05472032
H      -7.37248999     -0.40700269      1.18956378
H      -5.28472153     -1.43746504      0.68623221
H      -2.88597546     -1.63842125      0.77589096
H      -0.99061177     -0.82386113      1.82384328
H      -0.34392647     -1.74248226      0.44830078
H       1.43465485     -1.01327820      1.95833625
H       0.93203766      0.68624549      1.83932517
H       3.38288213      0.16881631      2.33063640
H       5.80090157     -0.01289158      2.47541939
H       5.99786328     -0.64835156     -1.80133050
H       3.57612991     -0.49963951     -1.92807446
H       1.03394969     -0.63743658     -1.72947830
H       1.79390223      0.96782380     -1.75480649
H      -0.01674332      1.94776146     -0.43551937
H      -0.63221636      1.14425138     -1.89545717
H      -2.47981318      2.24495665     -1.04548953
H      -4.90531110      2.42564862     -1.16331741
