24
COC(=O)CS(=O)(=O)c1ccc(Br)cc1
C      -4.05946497      0.80559838     -0.45149915
O      -3.31194759     -0.15182438      0.30293122
C      -1.95720344     -0.01350887      0.19949111
O      -1.40250961      0.80815647     -0.51396357
C      -1.28540921     -1.07039009      1.00293356
S       0.20242750     -0.47860280      1.72518398
O      -0.07067848      0.78049192      2.39303796
O       0.77057672     -1.58182394      2.48275378
C       1.33179202     -0.17624684      0.38607266
C       1.63698760      1.13476720      0.00951186
C       2.54638383      1.35930869     -1.02585981
C       3.15341487      0.27616664     -1.66246299
Br      4.38579932      0.58359133     -3.06278665
C       2.86531333     -1.03236446     -1.27122308
C       1.95478226     -1.26265037     -0.23811091
H      -3.86456704      0.68346128     -1.52142395
H      -5.12231008      0.62460326     -0.26924125
H      -3.81985516      1.82265371     -0.12574542
H      -1.92685557     -1.37314760      1.83721489
H      -1.07181783     -1.94221559      0.38068128
H       1.16650402      1.98238375      0.50406621
H       2.77423323      2.37915283     -1.32593164
H       3.35131598     -1.87455388     -1.75771429
H       1.75308830     -2.28300664      0.08039657
