21
C=CC1CC2C=CC1C2
C       2.81750873      0.37528666     -0.10129386
C       1.98887944     -0.60787642      0.27329040
C       0.52524227     -0.49169878      0.62866881
C      -0.35801097     -1.36460178     -0.32787038
C      -1.42710940     -0.36692077     -0.82446227
C      -2.27882378      0.03884044      0.35535693
C      -1.51709223      0.80998239      1.14592217
C      -0.15064255      0.90574616      0.49605424
C      -0.59447580      0.90886467     -0.97158694
H       2.49896204      1.40698965     -0.19972559
H       3.85905038      0.16057886     -0.32350497
H       2.40199983     -1.61364360      0.35136857
H       0.42088812     -0.85935380      1.65887326
H       0.21958344     -1.75352436     -1.17509540
H      -0.80103522     -2.21434986      0.20404682
H      -1.98440106     -0.66555815     -1.71279849
H      -3.29426574     -0.27599310      0.54184019
H      -1.79501160      1.23692173      2.09745642
H       0.42837291      1.77438142      0.81176650
H      -1.19057990      1.78934080     -1.24424320
H       0.23096111      0.80658784     -1.68406321
