48
CCN(CCO)C(=O)c1cc2cccnn2c1Cc1cccc(C(F)(F)F)c1
C      -2.84706002      0.90817114      2.24987011
C      -2.01894254      1.06077447      0.98334456
N      -2.64069771      0.39778778     -0.16780268
C      -3.71771456      1.11426964     -0.85934655
C      -3.23308644      1.97470353     -2.03243183
O      -2.52795776      3.12256143     -1.56224437
C      -2.12005146     -0.73733260     -0.79310755
O      -2.48191025     -1.08917163     -1.91457393
C      -1.12431364     -1.51341043     -0.06462369
C      -1.30523657     -2.24678661      1.14188428
C      -0.10543308     -2.84799521      1.44889613
C       0.32300729     -3.68347327      2.50548976
C       1.58659418     -4.12131436      2.51430343
C       2.45185733     -3.68910205      1.39437484
N       2.10893792     -2.92812854      0.40523785
N       0.80808557     -2.52054625      0.46369880
C       0.19534512     -1.70538644     -0.46173571
C       0.93061869     -1.15865569     -1.64414918
C       1.55713029      0.18849886     -1.35090555
C       0.84569102      1.37260693     -1.58103319
C       1.40445191      2.61024520     -1.26402756
C       2.68491183      2.67903901     -0.71582934
C       3.42151721      1.50878773     -0.48119706
C       4.79280739      1.57084587      0.14208102
F       4.76013454      1.38739792      1.49163935
F       5.41958734      2.76594975     -0.05410560
F       5.64621576      0.62503594     -0.34242319
C       2.84301042      0.26822592     -0.79525118
H      -3.83202575      1.37255396      2.14105203
H      -3.00458069     -0.14480899      2.49957599
H      -2.34017860      1.38791213      3.09293544
H      -1.89589254      2.12268383      0.74655682
H      -1.01297469      0.67059168      1.15947349
H      -4.25288215      1.73080808     -0.12964962
H      -4.42223677      0.36666481     -1.24270390
H      -4.09663188      2.32987865     -2.60395145
H      -2.57592519      1.41600875     -2.70486766
H      -2.24685738      3.61677348     -2.35166746
H      -2.22221310     -2.33084489      1.71027752
H      -0.37128316     -3.95983647      3.29216195
H       1.99618994     -4.76224535      3.28191315
H       3.48640968     -4.06898302      1.43359474
H       1.70542862     -1.85691625     -1.98512989
H       0.24790922     -1.06064896     -2.49773780
H      -0.15787150      1.33476678     -1.99793326
H       0.83470891      3.51997679     -1.43653063
H       3.10629891      3.65180178     -0.46738797
H       3.39710836     -0.64973485     -0.59601344
