38
CC(C)(O)CC(C)(O)c1cccc2ccccc12
C      -3.03214863     -2.20575396     -0.47782287
C      -2.58987878     -0.87307887      0.14136728
C      -3.77231965      0.09399702      0.13633820
O      -2.25452751     -1.14850411      1.50358193
C      -1.34032809     -0.35559113     -0.61370035
C      -0.62908135      0.92679947     -0.08834475
C      -1.33056827      2.18931348     -0.63418897
O      -0.77935797      1.04051230      1.33719723
C       0.88076752      0.87342971     -0.44530303
C       1.37214863      1.66453400     -1.50719091
C       2.72048080      1.67489377     -1.85074818
C       3.61954229      0.88575396     -1.14904998
C       3.18550245      0.05994718     -0.10767358
C       4.12858270     -0.73771485      0.56302785
C       3.74768566     -1.59261090      1.59239924
C       2.41418561     -1.66348299      1.95848519
C       1.46736148     -0.87163720      1.30116769
C       1.81080107      0.02558946      0.25693333
H      -2.22667023     -2.94756179     -0.42690224
H      -3.32795063     -2.08493590     -1.52509379
H      -3.87606015     -2.63505284      0.07471452
H      -3.59807154      0.94599779      0.79982203
H      -4.67301447     -0.39313018      0.52927161
H      -3.99596664      0.45532348     -0.87218005
H      -1.83717897     -0.32843663      1.84650935
H      -0.61484718     -1.18022663     -0.58760324
H      -1.57464220     -0.22706489     -1.67960395
H      -1.44547761      2.16552262     -1.72292487
H      -0.77375876      3.09483203     -0.36178551
H      -2.32305231      2.32992487     -0.20026427
H      -0.00872217      1.54552437      1.65965193
H       0.71571829      2.29690437     -2.09877411
H       3.06989322      2.30034406     -2.66841358
H       4.66943112      0.91205546     -1.43367743
H       5.17918651     -0.70313914      0.28106836
H       4.48850917     -2.20585677      2.09760826
H       2.09811730     -2.33714680      2.75103962
H       0.43570930     -0.99027382      1.62106199
