71
CCCCC(=O)OC1(C(=O)CO)C(C)CC2C3CCC4=CC(=O)C=CC4(C)C3(F)C(O)CC21C
C       7.38826436     -0.89051428     -1.03550955
C       6.89425091     -0.66563525      0.38601956
C       5.73622500     -1.58624638      0.78883893
C       4.44884755     -1.41946428     -0.01957630
C       3.66907259     -0.17960528      0.35489014
O       4.14977974      0.87735534      0.73451292
O       2.33829599     -0.39870882      0.16178480
C       1.38614196      0.61815522      0.57415843
C       1.77000640      1.25069221      1.94755631
O       2.02182389      0.54115242      2.93184678
C       1.86713381      2.76698659      2.07526751
O       2.00018220      3.15981694      3.43711030
C       1.11574974      1.59180447     -0.60302520
C       2.32348266      2.13141756     -1.36485528
C       0.19464690      0.81824141     -1.55796308
C      -0.43003518     -0.35131610     -0.76902889
C      -1.93718470     -0.52365715     -1.10011766
C      -2.38357258     -1.99618020     -0.97772777
C      -3.85486943     -2.20195130     -1.33537121
C      -4.74351120     -1.25416989     -0.56950257
C      -5.75620371     -1.71919278      0.18391713
C      -6.60708574     -0.81859499      0.99048249
O      -7.54009833     -1.24926158      1.65726991
C      -6.28997731      0.62346727      0.96124299
C      -5.28266451      1.09121577      0.21150396
C      -4.38126445      0.22887987     -0.66843276
C      -4.67157364      0.70677554     -2.11515689
C      -2.85828774      0.45030103     -0.31423544
F      -2.53430146      1.72727260     -0.73000062
C      -2.54164380      0.42496658      1.20389741
O      -2.88735261     -0.80096914      1.83081284
C      -1.06745365      0.76571448      1.46099808
C      -0.02826233     -0.11680585      0.71546473
C       0.12675355     -1.46985449      1.45207819
H       8.28427215     -0.28730537     -1.22090083
H       7.64783050     -1.94170197     -1.20082539
H       6.63699671     -0.59771428     -1.77402584
H       6.61788925      0.38629704      0.51148406
H       7.72930285     -0.84973719      1.07402676
H       5.52033200     -1.42548749      1.85370101
H       6.07249785     -2.62652366      0.69068100
H       4.63266155     -1.40626182     -1.09717557
H       3.81269498     -2.28797244      0.19570723
H       0.95952252      3.24063055      1.69900974
H       2.73988212      3.12914340      1.52916766
H       2.52960723      2.45633953      3.86609677
H       0.55001538      2.46218974     -0.25410723
H       1.99475508      2.80424160     -2.16494111
H       2.90341553      1.33214124     -1.83597313
H       2.98626101      2.70466851     -0.71362528
H       0.75194812      0.40818451     -2.41042532
H      -0.55239906      1.49830342     -1.98289614
H       0.08790293     -1.25350543     -1.12808323
H      -2.03496515     -0.27685878     -2.16621009
H      -1.77364036     -2.61849474     -1.64534955
H      -2.21557757     -2.38258614      0.02925874
H      -3.99978145     -2.05370855     -2.41125933
H      -4.12378707     -3.24668120     -1.13602667
H      -5.99581049     -2.77369340      0.26000608
H      -6.91500639      1.26697194      1.56833329
H      -5.08758676      2.16275905      0.21378105
H      -4.08708056      0.16972904     -2.86843924
H      -5.72986514      0.57116470     -2.37584373
H      -4.44341209      1.77334594     -2.23719451
H      -3.12492948      1.20912731      1.70227199
H      -2.69906536     -0.71910385      2.78354585
H      -0.93498742      1.81834163      1.18837265
H      -0.87763313      0.70766708      2.54117043
H      -0.80986420     -2.02140764      1.52032900
H       0.83840552     -2.13445161      0.95087910
H       0.47388346     -1.33013822      2.47957007
