26
CCC(C(=O)O)C(CC)C(=O)O
C      -2.32289246      1.66834208      0.34076196
C      -1.98642548      0.23836938      0.73907501
C      -0.92544789     -0.42548680     -0.16543556
C      -0.86495536     -1.90275417      0.17382297
O      -1.08071233     -2.41261190      1.26008654
O      -0.52718869     -2.66210277     -0.88479250
C       0.47319972      0.22783163     -0.08351706
C       1.34351474     -0.13433868     -1.30649676
C       2.59588931      0.72956939     -1.40978507
C       1.18363168     -0.16849203      1.19581493
O       1.93974335     -1.11183887      1.35193406
O       0.89022358      0.65191675      2.22169679
H      -1.48248937      2.34567078      0.51487145
H      -2.60513883      1.72733857     -0.71502029
H      -3.16613947      2.03327810      0.93626965
H      -1.67358797      0.21845758      1.78926813
H      -2.91178733     -0.35108899      0.69100002
H      -1.30653002     -0.34612777     -1.19299706
H      -0.48083198     -3.57111855     -0.51900097
H       0.37488474      1.31947371     -0.08786275
H       0.76059456      0.00447077     -2.22501357
H       1.64830634     -1.18661232     -1.27501244
H       3.25283289      0.59045918     -0.54602005
H       2.33551011      1.79065277     -1.47751791
H       3.16232627      0.46334564     -2.30794306
H       1.37346988      0.26339653      2.98181353
