40
CC(C)Oc1cc(-n2nc(C(C)(C)C)oc2=O)c(Cl)cc1Cl
C       5.74915322      0.21661256     -0.86095071
C       4.46047562     -0.44467478     -0.38302511
C       4.70904823     -1.90336533     -0.01683845
O       4.02761608      0.24301647      0.80274975
C       2.83243489      0.89757292      0.65986100
C       1.66053248      0.18439179      0.37193257
C       0.40527568      0.81823942      0.26841821
N      -0.74089733      0.02861807     -0.03176132
N      -1.99847651      0.54279759      0.07627021
C      -2.76429535     -0.44980806     -0.24059611
C      -4.27179053     -0.45690865     -0.29219853
C      -4.72300333     -0.85976307     -1.70201478
C      -4.82352648      0.93938945      0.03298683
C      -4.79753089     -1.46131484      0.74084445
O      -2.13401765     -1.59880197     -0.54975759
C      -0.80822079     -1.30161428     -0.41858484
O       0.07685415     -2.11287558     -0.63581806
C       0.37548490      2.21687498      0.48579099
Cl     -1.03866138      3.21278339      0.34923458
C       1.54813761      2.92417684      0.80343118
C       2.76952488      2.26658181      0.89917815
Cl      4.17598022      3.18267552      1.29521382
H       6.15461832     -0.29241603     -1.74067578
H       6.50906090      0.21558942     -0.07166063
H       5.56640130      1.26475151     -1.12081343
H       3.72271774     -0.39529758     -1.19456919
H       3.78742440     -2.37154034      0.34440589
H       5.44146543     -1.98610141      0.79388373
H       5.07285601     -2.47244495     -0.87777363
H       1.75467413     -0.89186440      0.26427951
H      -4.38504516     -1.86997932     -1.95989526
H      -5.81511404     -0.84356597     -1.78909070
H      -4.31333887     -0.17845743     -2.45678806
H      -4.45805010      1.68800801     -0.67965580
H      -4.51971632      1.26527459      1.03465067
H      -5.91869332      0.95153269     -0.00289729
H      -4.45220715     -2.47872741      0.52418795
H      -5.89295607     -1.47848445      0.75622942
H      -4.44906742     -1.20908881      1.74913974
H       1.50487251      3.99820768      0.97259646
