46
COc1cc(OC)nc(NC(=O)NS(=O)(=O)c2ncccc2C(=O)N(C)C)n1
C       5.60728826     -2.18563740      3.14634093
O       5.99072968     -1.24151774      2.15171233
C       4.92038571     -0.60913593      1.54934552
C       5.23152816      0.33094521      0.60279189
C       4.15439184      0.93937172      0.01618041
O       4.43999892      1.88829260     -0.94535404
C       3.28552750      2.46746667     -1.54848806
N       2.87645212      0.65923894      0.32730292
C       2.68624821     -0.27740626      1.26850656
N       1.40483016     -0.64121353      1.63878368
C       0.21740523     -0.16360659      1.17928851
O      -0.83118758     -0.66714447      1.56871062
N       0.24742335      0.88918252      0.27738175
S      -1.06145437      1.41882177     -0.60168052
O      -0.51058354      2.27584799     -1.63359112
O      -2.02903599      1.91400853      0.35458563
C      -1.66329050     -0.06564762     -1.38435214
N      -0.67672278     -0.97297614     -1.68236932
C      -1.08741758     -2.14276541     -2.21663893
C      -2.41839397     -2.45685001     -2.45532756
C      -3.39525234     -1.51611003     -2.13161720
C      -3.01101959     -0.29601484     -1.56961313
C      -4.02483176      0.72437392     -1.30571532
O      -4.08194838      1.64886721     -2.11084648
N      -4.87846405      0.55538416     -0.21737767
C      -4.56147291     -0.30494160      0.91696914
C      -5.81112865      1.63513411      0.05486143
N       3.66368231     -0.93617664      1.89907454
H       6.52093190     -2.61767815      3.56595001
H       5.02107468     -3.00270064      2.71209855
H       5.06163495     -1.70110339      3.96350496
H       6.25013074      0.57313449      0.33768642
H       2.68624115      3.01112484     -0.81008650
H       2.68491267      1.70787170     -2.06045452
H       3.62597338      3.18682747     -2.29916992
H       1.34910168     -1.38183379      2.31792331
H       1.14714148      1.15890221     -0.11423237
H      -0.29609718     -2.84734731     -2.45978122
H      -2.68930682     -3.41079776     -2.89599920
H      -4.44425942     -1.72387298     -2.32803918
H      -3.94475227     -1.15844726      0.63128672
H      -4.02001380      0.28418840      1.66329063
H      -5.49339759     -0.67890169      1.35092349
H      -5.32044311      2.37228779      0.69763111
H      -6.69492184      1.23291799      0.55835412
H      -6.12763803      2.12563694     -0.87016034
