7
CN=C=S
C      -0.88128479      0.04091622      0.01402246
N       0.24647378     -0.60731480     -0.65710691
C       1.29867277     -0.27567955     -0.25676465
S       2.91149453      0.23171964      0.35585738
H      -0.85887881      1.12906918     -0.11917807
H      -1.81545760     -0.32728759     -0.42227712
H      -0.90101990     -0.19142310      1.08544691
