41
CCONC(=O)c1cn(C)c(=O)c(C)c1Nc1ccc(Br)cc1F
C       5.04993552      2.59208994     -0.14567114
C       4.35551560      1.24522154     -0.17376444
O       2.99243357      1.44948938     -0.55095834
N       2.34149889      0.18988151     -0.58706794
C       1.53473583     -0.04930855      0.50770117
O       1.55891883      0.57733484      1.56366966
C       0.51991200     -1.12615711      0.29032392
C       0.93879777     -2.30045172     -0.20432266
N       0.06016261     -3.34276928     -0.42282259
C       0.58124932     -4.58762345     -0.97045981
C      -1.29627062     -3.24589895     -0.12318160
O      -2.10418985     -4.14870965     -0.32990829
C      -1.75370260     -1.94960262      0.48522705
C      -3.19950960     -1.92681266      0.89211848
C      -0.88405229     -0.92705314      0.65671777
N      -1.24423403      0.29567714      1.22070525
C      -1.86053297      1.35795692      0.49759996
C      -2.52445320      1.17805112     -0.72260117
C      -3.16772460      2.25161686     -1.35100914
C      -3.16913110      3.51157011     -0.75357412
Br     -4.04059636      4.95394713     -1.60861076
C      -2.54079661      3.71114534      0.46929753
C      -1.90553683      2.63609948      1.08363059
F      -1.30974048      2.83689192      2.26968900
H       4.99622109      3.07428786     -1.12733874
H       4.55917433      3.26379303      0.56642817
H       6.10059848      2.48367102      0.13756338
H       4.40277089      0.78153519      0.81796463
H       4.84335114      0.58821088     -0.90263963
H       1.99388340     -0.06564024     -1.50509233
H       1.98066996     -2.49171050     -0.44799855
H      -0.20374781     -5.33545297     -1.11000759
H       1.33105707     -4.99178840     -0.28278446
H       1.04627569     -4.38289432     -1.94013917
H      -3.84378715     -1.99493434      0.00930261
H      -3.47659191     -1.01958900      1.43663894
H      -3.42417089     -2.77178785      1.55212715
H      -0.47776201      0.70318861      1.77973537
H      -2.55373501      0.20709150     -1.20769864
H      -3.66985098      2.08965320     -2.30195974
H      -2.53704506      4.67978026      0.95743411
