29
NS(=O)(=O)c1nnc(NS(=O)(=O)c2ccccc2[N+](=O)[O-])s1
N       4.99483761     -1.05179441     -0.42242651
S       3.96583665     -1.54556994      0.82131436
O       3.38343132     -2.80666210      0.42349380
O       4.70209872     -1.36686318      2.05116791
C       2.62381499     -0.40879412      0.88951763
N       2.39476232      0.54833138      0.01314434
N       1.25620212      1.25824815      0.34499996
C       0.68387808      0.78374080      1.42766601
N      -0.50789337      1.42106801      1.94507312
S      -1.90844269      0.50703124      1.75870847
O      -1.76699549     -0.70677820      2.53359296
O      -3.04546092      1.37561356      1.96319991
C      -1.92984142      0.04687076      0.04307865
C      -1.69476064     -1.29377700     -0.29714410
C      -1.79169962     -1.70671187     -1.62920449
C      -2.13449878     -0.79291059     -2.62657581
C      -2.38010823      0.54116998     -2.29838908
C      -2.27750898      0.95587133     -0.96083445
N      -2.49006761      2.36731969     -0.68252553
O      -3.50213270      2.89353630     -1.15973657
O      -1.60811296      2.95046126     -0.03331502
S       1.49598442     -0.52898678      2.15837640
H       4.48775801     -0.82583333     -1.27768147
H       5.62071797     -0.31024712     -0.10657233
H      -0.64838908      2.35747108      1.54877687
H      -1.45277054     -2.03415761      0.46522594
H      -1.61113691     -2.74965347     -1.88814182
H      -2.21388310     -1.12348120     -3.66115044
H      -2.64561917      1.24548733     -3.08533875
