23
Cn1nc(S(N)(=O)=O)sc1=NS(=O)(=O)C(F)(F)F
C      -0.23604475     -1.79249104     -0.91468938
N       0.25807211     -0.63842369     -0.18535928
N       1.63465282     -0.53357044     -0.13658873
C       1.96151975      0.58931752      0.43706318
S       3.66579768      1.03352059      0.66797670
N       4.64508875     -0.19779959      0.04201864
O       3.92720264      2.18851251     -0.16332737
O       3.92142678      1.03658340      2.09204956
S       0.64467534      1.62459455      0.95447717
C      -0.49063861      0.40828751      0.32407806
N      -1.71411519      0.74484637      0.47167786
S      -2.94335338     -0.19603088      0.01392568
O      -2.88057046     -0.34483691     -1.43193653
O      -2.92237990     -1.39100759      0.84334891
C      -4.40203512      0.83965514      0.46339336
F      -4.44573237      1.12462872      1.79748109
F      -4.40721553      2.03889091     -0.18859694
F      -5.58287616      0.22753271      0.15842730
H       0.58053060     -2.48540827     -1.15091194
H      -0.67938672     -1.48800006     -1.86600804
H      -0.95850370     -2.35886856     -0.32487378
H       5.19399515     -0.61132135      0.79775237
H       5.22989028      0.18138845     -0.70467962
