8
CCF
C      -0.76544021      0.01820369      0.01219130
C       0.74000223     -0.09857106     -0.00946023
F       1.27533180      1.14985685     -0.05421019
H      -1.23446957     -0.96885100      0.04833240
H      -1.11950010      0.54621930     -0.87855180
H      -1.09025038      0.59679916      0.88242571
H       1.11195488     -0.59625061      0.89015681
H       1.08237135     -0.64740632     -0.89088400
