9
O=C(O)C(Br)=C(Br)Br
O       0.96222039     -0.45584482      1.63463889
C       0.83606911      0.10017599      0.55899603
O       1.90263698      0.46946075     -0.17368506
C      -0.43352796      0.45573841     -0.10369263
Br     -0.69093096      2.29087852     -0.39899463
C      -1.30141887     -0.51774661     -0.43735575
Br     -2.96184558     -0.18052095     -1.26823219
Br     -0.98887102     -2.35849817     -0.17586875
H       2.67566792      0.19635688      0.36419410
