15
O=c1nc[nH]c2nccnc12
O       1.05950025      2.77337322      0.49322235
C       1.15771891      1.57087659      0.27165323
N       2.39671139      0.95751747      0.14216868
C       2.42607044     -0.30985458     -0.09033892
N       1.36331629     -1.13814028     -0.22730129
C       0.08555986     -0.61201856     -0.11326187
N      -0.97617562     -1.44068752     -0.25032741
C      -2.19512755     -0.85717779     -0.12658524
C      -2.35744994      0.49739896      0.12373755
N      -1.30927380      1.33642090      0.26288101
C      -0.08624362      0.74874429      0.13832327
H       3.39478587     -0.82610453     -0.19830762
H       1.43199906     -2.12825125     -0.40959554
H      -3.05007279     -1.51637582     -0.23546987
H      -3.34131875      0.94427891      0.21920168
