13
COCCO
C      -1.79282734      0.61306082      0.63465416
O      -0.54270769     -0.06187478      0.70047237
C       0.14000790     -0.02224926     -0.55950309
C       1.46605376     -0.75781682     -0.39958212
O       2.25685178     -0.11144237      0.59684421
H      -2.26958811      0.55065297      1.61648083
H      -2.44633128      0.13704271     -0.10267449
H      -1.64555739      1.66787988      0.38369115
H       0.32194947      1.02399554     -0.82947080
H      -0.47068702     -0.50544438     -1.32934062
H       2.02734337     -0.76281513     -1.33786541
H       1.30345990     -1.78996716     -0.07382563
H       1.65203265      0.01897796      1.35371439
