40
CC(C)(C)C(O)C(Cc1ccc(Cl)cc1Cl)n1cncn1
C       1.70665734     -1.53388661     -1.40004793
C       2.02821715     -0.82177073     -0.07371627
C       3.18553532      0.16486755     -0.30748831
C       2.54062168     -1.88712674      0.92677189
C       0.74255774     -0.16188918      0.53294945
O       1.05452211      0.48940718      1.77214130
C      -0.12611482      0.75835403     -0.37710045
C      -1.44662782      1.18766572      0.30804399
C      -2.43839848      0.05939377      0.50607552
C      -2.56023527     -0.51427251      1.78381537
C      -3.45404294     -1.56161001      2.01386814
C      -4.23658542     -2.04468158      0.96928366
Cl     -5.33645379     -3.33653433      1.25328683
C      -4.13403290     -1.49199735     -0.30397583
C      -3.23868024     -0.44467805     -0.53434347
Cl     -3.15524670      0.19829072     -2.13643771
N       0.57104287      1.96262254     -0.80821662
C       0.65460876      2.46897637     -2.06797834
N       1.32673732      3.59624677     -2.04101489
C       1.62409875      3.74981367     -0.71722016
N       1.18050267      2.77442116      0.08232949
H       2.56673869     -2.11241695     -1.75675782
H       0.86677465     -2.22765938     -1.28263436
H       1.45040212     -0.82123265     -2.19063517
H       4.10189462     -0.36884382     -0.58784505
H       2.97472911      0.85861761     -1.12444960
H       3.41385561      0.74558785      0.59192598
H       1.77160910     -2.64077316      1.13095038
H       3.41803599     -2.41332823      0.53307465
H       2.83037983     -1.43512552      1.88177217
H       0.09614285     -1.00165802      0.81669937
H       1.39560844      1.38424186      1.54897716
H      -0.36601995      0.20805210     -1.29303294
H      -1.23547588      1.66372613      1.27541312
H      -1.94059129      1.97824612     -0.27371874
H      -1.95008096     -0.15096826      2.61124923
H      -3.53268578     -1.99383405      3.00863142
H      -4.75050505     -1.87485990     -1.11308454
H       0.22201614      1.99647513     -2.93921926
H       2.17848843      4.59414072     -0.32699991
