25
CCOC(=O)C=Cc1ccccc1
C      -4.67141927     -0.04838445     -0.96303126
C      -4.13135664      0.05850269      0.45076139
O      -2.76194616     -0.36804296      0.49127055
C      -1.84305168      0.59085372      0.21548293
O      -2.06459740      1.75719320     -0.06284068
C      -0.50430081     -0.02610854      0.30813281
C       0.59108172      0.71541502      0.08430051
C       1.96256986      0.19171760      0.13691882
C       2.91873875      0.71641593     -0.74273947
C       4.24067936      0.26525086     -0.71024614
C       4.62315278     -0.70738038      0.21053833
C       3.68617446     -1.22504905      1.10209814
C       2.36357280     -0.77443508      1.06937443
H      -5.73155681      0.21839655     -0.99441824
H      -4.55202547     -1.06791294     -1.34412832
H      -4.12459385      0.61199920     -1.64346817
H      -4.69412403     -0.60945203      1.11109099
H      -4.24498651      1.07392824      0.84769541
H      -0.46356092     -1.08170853      0.54452713
H       0.49437304      1.76828543     -0.17737667
H       2.64104811      1.47770454     -1.46878183
H       4.97076537      0.67564876     -1.40305064
H       5.65187953     -1.05712409      0.23739300
H       3.98530329     -1.97598273      1.82883442
H       1.65818047     -1.17973095      1.79028534
