53
CN(C)[P+](CC1CCCCC1)(N(C)C)N(C)C.F[B-](F)(F)F
C      -0.48986565      2.75727596      0.31910291
N      -1.65831428      1.92216559     -0.00679951
C      -2.10258423      2.37837869     -1.31085785
P      -1.10005394      0.27087326     -0.03477901
C       0.49085849      0.25641555     -0.88292777
C       1.37676406     -0.88057659     -0.46662889
C       1.67883809     -0.83010583      0.99426969
C       3.09033186     -1.24656103      1.33923144
C       4.13684652     -0.42047070      0.66486615
C       3.56785657      0.22095740     -0.60163065
C       2.67712907     -0.82265138     -1.23777465
N      -2.17742292     -0.76305649     -0.82335058
C      -3.46247785     -0.31855475     -1.15577096
C      -1.72026605     -1.97646256     -1.32175703
N      -0.94604333     -0.23680488      1.65142839
C      -1.84696627     -1.34186816      1.92990741
C      -1.23690919      0.81859045      2.56663108
F       0.97839879      0.18987379     -1.05387662
B       0.01094016     -0.00058483      0.00041771
F      -0.87423297     -1.08216083     -0.38390125
F       0.64417426     -0.33049749      1.26421030
F      -0.75928025      1.22336937      0.17314986
H      -0.85556499      3.67643552      0.81002220
H       0.22218291      2.23825107      0.96471748
H       0.05120741      3.04497456     -0.62402157
H      -3.21290151      2.42147437     -1.38622362
H      -1.75729241      3.41562677     -1.51996989
H      -1.65862230      1.75269242     -2.13013655
H       0.25908054      0.10379483     -1.97877450
H       1.03042059      1.20089486     -0.82624669
H       0.93295112     -1.87384338     -0.68849834
H       1.46078675      0.15107174      1.46869414
H       1.01920957     -1.56492821      1.54470040
H       3.19933921     -1.08316126      2.44252402
H       3.19573602     -2.33027337      1.18309996
H       4.95573743     -1.09747857      0.33723600
H       4.58702712      0.35291278      1.29831069
H       2.98065192      1.09168023     -0.25456334
H       4.39103269      0.53391239     -1.28505404
H       2.51644900     -0.62749634     -2.31911914
H       3.19164461     -1.81553067     -1.13986494
H      -3.47047643      0.16251190     -2.17830660
H      -3.98169796      0.30090029     -0.40510835
H      -4.12555471     -1.22484194     -1.29629734
H      -1.31431544     -2.70981581     -0.61882380
H      -0.97618846     -1.79884715     -2.13867757
H      -2.57542115     -2.49869207     -1.84370298
H      -2.19056367     -1.33626795      2.99248007
H      -1.35049128     -2.33373358      1.79270813
H      -2.78458192     -1.27700247      1.31830561
H      -0.31431173      1.20896311      3.08700758
H      -1.89107512      0.46304735      3.40041555
H      -1.81211875      1.66522403      2.10210469
