15
O=Cc1cccc(O)c1
O       3.40078523      0.18765656      0.23990166
C       2.46277982     -0.59972052      0.25830173
C       1.06389335     -0.15734432      0.09988821
C       0.76943712      1.19830738     -0.07860301
C      -0.55753677      1.60550402     -0.22744253
C      -1.58559167      0.66121621     -0.19792741
C      -1.27611893     -0.68528335     -0.01933383
O      -2.25046872     -1.63848151      0.01533449
C       0.04077758     -1.10617785      0.13030591
H       2.62521784     -1.68202918      0.39521828
H       1.56985678      1.93538379     -0.10179844
H      -0.78778158      2.65916146     -0.36627690
H      -2.61306342      0.99245419     -0.31500694
H      -3.11423295     -1.20824829     -0.10053858
H       0.25204632     -2.16239859      0.26797736
