16
O=C([O-])c1cccc(Cl)c1[N+](=O)[O-]
O      -2.67965906     -1.25489048     -0.28672239
C      -1.59098554     -1.68159090      0.19232414
O      -1.39562216     -2.80644591      0.74417718
C      -0.39643241     -0.78497229      0.06040376
C       0.89048267     -1.35465654     -0.00668971
C       2.02843670     -0.56071681     -0.15039379
C       1.90182069      0.82469846     -0.22209910
C       0.63805063      1.42058891     -0.14670147
Cl      0.58886471      3.15139899     -0.19615970
C      -0.50040871      0.61298778     -0.01291428
N      -1.78591615      1.27003548      0.12249821
O      -2.27808211      1.76834988     -0.90373684
O      -2.21288715      1.42603817      1.27851151
H       0.99027989     -2.43942089      0.05436384
H       3.00815288     -1.02788342     -0.20088697
H       2.79390512      1.43647955     -0.32597440
