77
COC(C)COC(C)COCCC[Si](C)(O[Si](C)(C)C)O[Si](C)(C)O[Si](C)(C)C
C       8.80822411      0.20492050     -1.16655673
O       8.56854284     -0.98216913     -0.42132985
C       7.17470395     -1.27304091     -0.25427278
C       7.05695718     -2.77361722      0.00413496
C       6.57968224     -0.46898130      0.91752873
O       5.19540580     -0.75724548      1.12439955
C       4.31007245     -0.01219409      0.27923278
C       3.96952910      1.32027646      0.94526012
C       3.04828949     -0.85828767      0.06140964
O       2.16295267     -0.19878395     -0.84372251
C       0.98451079     -0.96819966     -1.07531418
C       0.05917076     -0.20554818     -2.02186804
C      -0.27830432      1.23148941     -1.59788458
Si     -1.24411486      1.44725893      0.03453147
C       0.01124024      1.75580541      1.39827165
O      -2.30411382      2.73191499     -0.05886704
Si     -3.39770113      3.44744986     -1.09982165
C      -4.33864951      2.16059364     -2.09578472
C      -4.64420039      4.46372719     -0.12202252
C      -2.51127006      4.59632886     -2.29617805
O      -2.12827425      0.06960146      0.33942014
Si     -3.07570963     -0.63407391      1.51266094
C      -2.16823367     -0.71111326      3.15579849
C      -4.66026541      0.33733430      1.77327255
O      -3.41703474     -2.18686719      0.99704042
Si     -4.26729311     -2.99286308     -0.19489938
C      -3.70798317     -4.78752151     -0.28243974
C      -6.10995058     -2.96899402      0.18322665
C      -3.99341564     -2.20879229     -1.88024488
H       9.88939694      0.33414346     -1.26291506
H       8.37794163      0.12115398     -2.16946296
H       8.40243569      1.08224950     -0.65359596
H       6.63476581     -1.05802607     -1.18479373
H       7.58084229     -3.05436847      0.92438083
H       7.52864315     -3.33665426     -0.80859861
H       6.01281456     -3.09053982      0.08357989
H       6.73540345      0.60629475      0.78797377
H       7.10889108     -0.73567857      1.84012117
H       4.77124121      0.18485128     -0.69602910
H       4.87045657      1.91903627      1.11151474
H       3.51577835      1.15743640      1.92899886
H       3.27943915      1.90933063      0.33406212
H       2.54214601     -1.03826685      1.01818651
H       3.33392056     -1.83520937     -0.34903420
H       0.48287682     -1.18065777     -0.12446686
H       1.26075528     -1.92482082     -1.53471516
H       0.54981291     -0.14349687     -3.00234302
H      -0.86102824     -0.78372218     -2.16677690
H       0.63452402      1.83616963     -1.54062398
H      -0.88664794      1.67173942     -2.39601059
H       0.64739951      2.60945321      1.14674254
H       0.65099907      0.88065541      1.54257871
H      -0.49179397      1.97476709      2.34434345
H      -3.65002514      1.49402727     -2.62043046
H      -4.98365982      2.63977094     -2.83705822
H      -4.96580599      1.54775145     -1.44137684
H      -5.36184296      4.94345492     -0.79386220
H      -4.13704666      5.24347212      0.45446092
H      -5.19721678      3.82602062      0.57396588
H      -3.22084273      5.04553111     -2.99668463
H      -1.76036879      4.04958788     -2.87263271
H      -2.00938273      5.40233541     -1.75360155
H      -2.76467914     -1.24699569      3.90142687
H      -1.96973430      0.29288280      3.53972839
H      -1.21380067     -1.23302463      3.04009335
H      -5.30851758     -0.16581500      2.49801879
H      -4.44376388      1.34210493      2.14862580
H      -5.21369508      0.43711547      0.83463314
H      -4.28970679     -5.33796367     -1.02808695
H      -3.83893530     -5.27789345      0.68742098
H      -2.65058457     -4.84578486     -0.55817727
H      -6.48072470     -1.94149986      0.23575138
H      -6.31054100     -3.45612999      1.14207677
H      -6.67036331     -3.49586062     -0.59311844
H      -4.33247197     -1.16818246     -1.88349009
H      -4.54812402     -2.75244414     -2.65146122
H      -2.93194735     -2.22670869     -2.14405070
