25
Oc1c(Cl)cc(Cl)cc1Sc1cc(Cl)cc(Cl)c1O
O       0.96099724     -2.46940710      0.29101674
C       1.71730509     -1.34823596      0.06386573
C       2.91800824     -1.18814366      0.76625194
Cl      3.45360101     -2.36239350      1.91350737
C       3.71095393     -0.06045127      0.55583789
C       3.30192790      0.90211377     -0.36249373
Cl      4.27765105      2.29438484     -0.62850759
C       2.11022930      0.75164100     -1.07130661
C       1.30518698     -0.37333595     -0.85779332
S      -0.19978464     -0.54189125     -1.80889002
C      -1.39127315      0.09204070     -0.63516737
C      -1.67391328      1.46283221     -0.62482155
C      -2.60810122      1.97750443      0.27561605
Cl     -2.94057163      3.66573313      0.28119779
C      -3.27512289      1.14235692      1.16859042
C      -3.00225990     -0.22295455      1.15543251
Cl     -3.83038218     -1.25871743      2.25841072
C      -2.06668642     -0.75062953      0.25819197
O      -1.79082862     -2.09714952      0.24521041
H       0.09489466     -2.35553846     -0.15340342
H       4.64176346      0.06387111      1.10273979
H       1.81507385      1.51050159     -1.79240738
H      -1.17013843      2.13282042     -1.31810261
H      -4.00101996      1.55254925      1.86563801
H      -2.35751041     -2.51950121      0.92184716
