55
O=C1CCCCCCCCCCCCCCCCCN1
O      -0.27910929      2.52660415     -2.20486387
C       0.30178080      2.83113268     -1.16563810
C      -0.41750907      3.25441813      0.10294306
C      -1.93678022      3.34440804     -0.05216788
C      -2.67496619      2.00045993     -0.08183315
C      -2.56710271      1.22011296      1.23129381
C      -3.62291266      0.11674284      1.36884963
C      -3.62661635     -0.94809160      0.26848126
C      -2.32834224     -1.75478034      0.20536542
C      -2.42194237     -2.87643925     -0.83045580
C      -1.20176769     -3.80544639     -0.86592505
C       0.11016391     -3.10489723     -1.23263683
C       0.94950403     -2.73890204     -0.00471857
C       2.12676561     -1.84258446     -0.39103944
C       2.96174527     -1.46330673      0.83334656
C       4.14793180     -0.55201160      0.50222446
C       3.79258173      0.77974363     -0.16790854
C       2.87557481      1.66604074      0.68216418
C       2.55520174      2.99137502     -0.00878818
N       1.66883926      2.81073411     -1.14417760
H      -0.14564204      2.57828824      0.91828696
H      -0.05445733      4.25715911      0.35905475
H      -2.17973671      3.89553182     -0.96926596
H      -2.33533882      3.94034006      0.77865647
H      -3.73223218      2.20827405     -0.28908918
H      -2.30661847      1.38691610     -0.91101717
H      -2.69449776      1.90907392      2.07562113
H      -1.56455103      0.79005301      1.33120109
H      -3.48761392     -0.37427142      2.34065717
H      -4.61562551      0.58355253      1.39803127
H      -3.82649212     -0.48562025     -0.70491474
H      -4.46304808     -1.63129553      0.46284986
H      -2.11439139     -2.18242510      1.19185947
H      -1.50239725     -1.08560544     -0.05560101
H      -3.30769722     -3.48911972     -0.62087880
H      -2.57328525     -2.44035911     -1.82584188
H      -1.10578899     -4.33724013      0.08812840
H      -1.40261547     -4.57065023     -1.62669856
H       0.70636109     -3.78341654     -1.85616463
H      -0.09147502     -2.21815903     -1.84523025
H       1.31997968     -3.65660344      0.46831181
H       0.33865331     -2.22332372      0.74270335
H       1.73258935     -0.94050259     -0.87169140
H       2.75980328     -2.35460903     -1.12544154
H       2.32476210     -0.98694041      1.58730951
H       3.35125229     -2.37810630      1.29760872
H       4.69899219     -0.34847585      1.42876706
H       4.83888199     -1.09548607     -0.15428911
H       4.72691137      1.32151485     -0.36283336
H       3.34192704      0.59275636     -1.14852625
H       1.94148947      1.14250779      0.91189494
H       3.37423363      1.87726491      1.63565242
H       3.46855070      3.46699108     -0.38122229
H       2.09424400      3.67559380      0.70877749
H       2.07183289      2.50107967     -2.02118109
