22
Clc1cccc(-c2c(Cl)cccc2Cl)c1Cl
Cl      3.89436855      1.66638101      1.86156564
C       2.88864935      0.72916676      0.81033627
C       3.53064125     -0.09446580     -0.11893084
C       2.78315759     -0.87586501     -0.99569913
C       1.39025365     -0.83599820     -0.94584990
C       0.71867899     -0.01464818     -0.01906103
C      -0.75923131     -0.01182466     -0.01060553
C      -1.48990684     -0.90957090      0.79529762
Cl     -0.69913165     -2.07236110      1.80826997
C      -2.88993412     -0.90080032      0.80815500
C      -3.59255124      0.00321654      0.01644851
C      -2.89564575      0.89826543     -0.79035318
C      -1.49562345      0.89150155     -0.80498752
Cl     -0.71217369      2.03701850     -1.84302463
C       1.48621029      0.77472915      0.86661571
Cl      0.68461473      1.79874313      2.02197127
H       4.61680239     -0.13051563     -0.16337601
H       3.28428320     -1.51618134     -1.71811342
H       0.82136968     -1.45415125     -1.63949876
H      -3.43738537     -1.59826744      1.43850990
H      -4.67989199      0.01128489      0.02941849
H      -3.44755427      1.60434287     -1.40708841
