36
CCN1c2ncccc2C(=O)Nc2c(C(F)(F)F)cc(C)nc21
C       0.03399267      3.05745343     -1.27771454
C       0.93565488      2.33017833     -0.27938430
N       0.80349376      0.86309921     -0.40399581
C       2.00670162      0.17700763     -0.12529643
N       2.99216979      0.83044451      0.55698879
C       4.15618730      0.19543214      0.81619785
C       4.42383658     -1.09467705      0.41720357
C       3.43367663     -1.76335153     -0.28650408
C       2.20665179     -1.13080974     -0.55528399
C       1.23069111     -1.88735834     -1.35314349
O       1.64084950     -2.72115814     -2.16279272
N      -0.11846720     -1.80417957     -1.13728355
C      -0.87234750     -0.93635838     -0.32252758
C      -2.16767214     -1.34151269      0.06410565
C      -2.72767382     -2.69781194     -0.26804202
F      -2.36146600     -3.64366353      0.63888282
F      -4.08992195     -2.72255799     -0.30235503
F      -2.32389185     -3.16762344     -1.48253843
C      -2.94903534     -0.48521978      0.85204855
C      -2.44526353      0.74975662      1.20420066
C      -3.25164268      1.69415996      2.04279214
N      -1.22541132      1.15934816      0.80668020
C      -0.43374933      0.34789780      0.05365431
H       0.23550567      2.71845292     -2.29963524
H       0.22161957      4.13527127     -1.23431104
H      -1.02933201      2.89972967     -1.07828504
H       1.95200131      2.65489716     -0.54160380
H       0.75440546      2.67720152      0.74623872
H       4.88880421      0.77825135      1.36726772
H       5.37538068     -1.56466512      0.63710514
H       3.61471381     -2.77855976     -0.63461971
H      -0.60320631     -2.55285884     -1.62710480
H      -3.93986308     -0.78499286      1.18643518
H      -4.18328804      1.95346423      1.53042123
H      -3.48713082      1.23611943      3.00844478
H      -2.69697343      2.61919337      2.23067739
