45
CCN(CCO)C(=O)c1cc2ccncn2c1-c1cccc(C(F)(F)F)c1
C      -3.71993253     -0.59219036     -1.49281712
C      -2.43049425      0.17743417     -1.25450397
N      -2.27588574      0.56300848      0.15111696
C      -2.94617733      1.79392777      0.58572057
C      -2.08989342      3.05027407      0.35762653
O      -0.85997167      3.03625840      1.07763079
C      -1.36151496     -0.01194726      1.03904037
O      -1.14654295      0.48117764      2.14641545
C      -0.61877959     -1.18307240      0.59224134
C      -1.11775876     -2.49088930      0.32857718
C      -0.04899635     -3.26661050     -0.05065133
C       0.12427891     -4.61342113     -0.44269937
C       1.35914717     -5.02571867     -0.77536040
N       2.49188259     -4.23891852     -0.77083661
C       2.34211469     -2.99898695     -0.39821964
N       1.09189358     -2.49012926     -0.02208806
C       0.76403858     -1.21142990      0.39901987
C       1.72896701     -0.12249501      0.55701665
C       2.74681231     -0.20070042      1.51327823
C       3.63692142      0.86059268      1.68343822
C       3.50608632      2.01424135      0.90978252
C       2.48145574      2.12036026     -0.04225715
C       2.33714797      3.37459078     -0.86788159
F       3.35492144      3.50790115     -1.76673684
F       2.35533176      4.51318053     -0.12176904
F       1.19240449      3.42134383     -1.60663669
C       1.60525519      1.03800998     -0.21784860
H      -4.59645233      0.01592469     -1.24798802
H      -3.79638678     -0.88717909     -2.54389368
H      -3.76376719     -1.49630985     -0.87873860
H      -2.42161678      1.08840214     -1.86354884
H      -1.58091323     -0.42243595     -1.59045807
H      -3.89939549      1.88568925      0.05491832
H      -3.17427795      1.70474286      1.65438535
H      -2.64871206      3.93574597      0.67598798
H      -1.84820096      3.16774726     -0.70316107
H      -0.90275784      2.32513873      1.75214706
H      -2.14492343     -2.82046674      0.41701111
H      -0.72077768     -5.29268324     -0.47190640
H       1.51527458     -6.05846772     -1.07958567
H       3.21572916     -2.32980334     -0.38094898
H       2.84083328     -1.07666940      2.15166539
H       4.42174883      0.79557126      2.43348237
H       4.19764758      2.84196910      1.06176393
H       0.80423667      1.11729265     -0.95173043
