49
COc1ccc(OC)c(-c2cccc3c(N)c(C(=O)NCCC(F)(F)F)nnc23)c1
C      -4.49198180      0.12598203     -3.42625609
O      -4.99587222     -0.78798325     -2.46017708
C      -4.43092570     -0.74349763     -1.21635528
C      -4.88841103     -1.71886123     -0.33251847
C      -4.39366617     -1.79244587      0.97237190
C      -3.42675635     -0.88428480      1.41254910
O      -2.88808718     -0.88135032      2.67548066
C      -3.15221762     -2.01077079      3.49854049
C      -2.96132114      0.11784671      0.53354934
C      -1.94976957      1.11165185      0.95437992
C      -2.35097139      2.16552363      1.79545390
C      -1.44253095      3.12988282      2.20261317
C      -0.11927177      3.04166806      1.78222998
C       0.32771823      1.98668173      0.95113089
C       1.67832000      1.86423913      0.52747351
N       2.63297276      2.86213218      0.86133898
C       1.97074174      0.83241841     -0.37189852
C       3.34956178      0.59773674     -0.91249400
O       4.32164205      1.23072037     -0.50912721
N       3.44611968     -0.39536344     -1.87105779
C       4.70313046     -0.76739120     -2.48765700
C       5.52968166     -1.66845991     -1.58512262
C       6.80530915     -2.07254958     -2.27723519
F       7.54459216     -2.87896334     -1.48394246
F       6.54690762     -2.75002696     -3.41780590
F       7.56212512     -1.00198492     -2.59477233
N       1.04931474     -0.06758470     -0.77902881
N      -0.23122439      0.03015150     -0.31378836
C      -0.61274477      1.01977147      0.51940728
C      -3.47474669      0.17228428     -0.77974037
H      -4.70297692      1.16071771     -3.13625901
H      -5.00976167     -0.06707530     -4.37058016
H      -3.42152103     -0.02751575     -3.59638648
H      -5.63849043     -2.43340529     -0.66353613
H      -4.78914440     -2.56886706      1.61836275
H      -2.56264886     -1.90219610      4.41399172
H      -4.20838791     -2.04684491      3.78675575
H      -2.84099067     -2.94124497      3.01115478
H      -3.38495046      2.22889865      2.13047693
H      -1.76164778      3.94719094      2.84438387
H       0.56504677      3.82241170      2.10585240
H       2.57913068      3.18292098      1.82222793
H       3.59120463      2.57495313      0.61987289
H       2.59374163     -0.89926356     -2.10750488
H       5.25459873      0.14898169     -2.72731538
H       4.45739666     -1.27338643     -3.42740087
H       4.95457431     -2.56371689     -1.32036668
H       5.76843059     -1.15712173     -0.64553277
H      -3.10124226      0.94739020     -1.44178791
