30
N#CCC[NH2+][C@@H](Cc1ccccc1)C(=O)[O-]
N       2.92095498      0.62808534      2.56876149
C       2.95047793     -0.33110907      1.91874187
C       2.92205138     -1.52001813      1.06511337
C       1.50933373     -1.78061681      0.55365742
N       1.06514869     -0.71639615     -0.38964981
C      -0.12305578     -1.14259011     -1.28355526
C      -0.86468833      0.09517176     -1.80024264
C      -1.38990053      0.96854091     -0.68207419
C      -2.41594228      0.51016671      0.15590534
C      -2.87062404      1.30057132      1.21186207
C      -2.30892527      2.55563694      1.43688260
C      -1.29919284      3.02692464      0.60035204
C      -0.84350943      2.24023810     -0.45797000
C       0.43082450     -1.86021594     -2.54742346
O      -0.37713864     -2.51435869     -3.23823585
O       1.69206839     -1.68012180     -2.62500745
H       3.61671346     -1.40203030      0.22592324
H       3.25847544     -2.38841475      1.64254594
H       1.48628301     -2.73308926      0.01339339
H       0.77362390     -1.81215268      1.36465377
H       0.91632856      0.20530664      0.03551102
H       1.79600995     -0.63619737     -1.13813196
H      -0.76400252     -1.79787332     -0.68460178
H      -0.21011380      0.68615311     -2.45515883
H      -1.71455774     -0.20526873     -2.42741263
H      -2.87879163     -0.46045193     -0.01343925
H      -3.67113843      0.94209186      1.85463052
H      -2.66780763      3.17327595      2.25664525
H      -0.87353197      4.01358148      0.76845311
H      -0.06537306      2.63516027     -1.10869271
