23
C=COC1CCCCC1
C       3.99293168      0.39918353      0.15834100
C       2.75588282      0.14671078     -0.26995485
O       1.65984320      0.53367404      0.44813357
C       0.44819889     -0.13724378      0.07453735
C      -0.25162387      0.63500647     -1.04969895
C      -1.62319778      0.04870227     -1.36879544
C      -2.50401328     -0.03102962     -0.12504984
C      -1.81435494     -0.78805673      1.00641820
C      -0.44317955     -0.19883674      1.31955509
H       4.85782499      0.09986612     -0.42226251
H       4.15946934      0.91311769      1.09916313
H       2.55682027     -0.35264943     -1.20852096
H       0.65886031     -1.16788776     -0.24551806
H       0.37005437      0.63163090     -1.95272983
H      -0.35359775      1.69023129     -0.76430782
H      -2.11761803      0.66058945     -2.13161818
H      -1.50042565     -0.95498664     -1.79403326
H      -3.45122345     -0.52234868     -0.37435449
H      -2.74932345      0.98351664      0.21256197
H      -2.44181833     -0.76093118      1.90433746
H      -1.70302909     -1.84257548      0.72564686
H       0.05138133     -0.79313809      2.09753448
H      -0.55786200      0.80745494      1.74365066
