19
Nc1nc(N)c2nc(N)[nH]c2n1
N      -2.63775749      2.33790303     -0.45681914
C      -1.68291578      1.36869972     -0.21420095
N      -2.12510107      0.22111991      0.33404546
C      -1.24637031     -0.78046367      0.57473969
N      -1.72369872     -1.95457458      1.14810150
C       0.10147931     -0.57637907      0.25134042
N       1.23346527     -1.35372317      0.38801262
C       2.20472679     -0.61792141     -0.09589969
N       3.50089584     -0.94525394     -0.17930886
N       1.75603741      0.60057216     -0.53160983
C       0.41075955      0.64484655     -0.31449471
N      -0.42467217      1.65523186     -0.58623151
H      -3.54541199      1.89938796     -0.53389828
H      -2.34189277      2.92857204     -1.22057113
H      -0.99947506     -2.49071850      1.61382412
H      -2.58598374     -1.79901330      1.65397936
H       4.08617957     -0.55624862     -0.91034122
H       3.70474365     -1.92741893     -0.00776670
H       2.31499171      1.34538197     -0.91290118
