45
COc1ccc2c3c1OC1C(O)CCC4C(C2)N(C)CCC341
C       4.93023865      2.04272997     -0.32258784
O       3.92444154      1.15467523     -0.78872854
C       2.70160756      1.23501589     -0.18917350
C       2.35528936      2.07950334      0.87786928
C       1.07100396      2.02954841      1.46705250
C       0.09930318      1.16243332      0.97019657
C       0.44550823      0.40422173     -0.13270887
C       1.71894580      0.38334762     -0.66176998
O       1.87206121     -0.60102791     -1.60863581
C       0.65629775     -1.41533238     -1.51508402
C       0.95450976     -2.74565131     -0.79365566
O       0.03185436     -3.75376572     -1.22335424
C       0.84405326     -2.63614536      0.72590384
C      -0.52509361     -2.14933975      1.21719120
C      -1.30566537     -1.26691209      0.21976681
C      -2.14470312     -0.14804107      0.91694314
C      -1.23703675      0.92515098      1.62943886
N      -3.06765269      0.39781194     -0.11092410
C      -4.11261183      1.25032990      0.44775323
C      -2.37190998      1.06291550     -1.21689596
C      -1.32617577      0.14631827     -1.86319890
C      -0.43375831     -0.57243612     -0.82958806
H       5.17608027      1.84482119      0.72596083
H       5.83342879      1.86611205     -0.91463562
H       4.63530877      3.08710586     -0.46926073
H       3.07544435      2.76928746      1.30695892
H       0.85699589      2.65624598      2.32994571
H       0.36495995     -1.64609888     -2.54794272
H       1.96274782     -3.09345590     -1.04762278
H       0.25201366     -3.97137983     -2.14622461
H       1.62351049     -1.96265956      1.10130217
H       1.04113131     -3.61433231      1.18237486
H      -1.14850026     -3.02475907      1.44421939
H      -0.38631894     -1.64862416      2.18197953
H      -1.99693239     -1.94440785     -0.30485891
H      -2.76454010     -0.62633367      1.68733185
H      -1.76070045      1.87946614      1.74329741
H      -1.03716222      0.56297229      2.64658983
H      -4.86288093      1.47854984     -0.31778390
H      -3.72922464      2.20032441      0.83286273
H      -4.64275473      0.73665132      1.25715589
H      -3.09632935      1.34193888     -1.99248168
H      -1.90197012      1.99741385     -0.88675713
H      -0.72441017      0.73699126     -2.56623157
H      -1.85040418     -0.61117970     -2.46198942
