27
CC(C)=CCC/C(C)=C/C=O
C       3.74795543     -0.90313465      1.35493209
C       2.48839903     -0.86970914      0.52860456
C       2.71054884     -1.07211251     -0.94496389
C       1.29104429     -0.66115327      1.11021675
C      -0.05924246     -0.63153127      0.44639338
C      -0.56036886      0.80594608      0.26385261
C      -1.95406669      0.87068411     -0.34034516
C      -2.03139210      0.49705388     -1.79701973
C      -2.98884218      1.27197113      0.42276379
C      -4.40066572      1.37728610     -0.00638990
O      -5.26545121      1.78157840      0.76226554
H       3.54934971     -0.75979453      2.42229029
H       4.25167513     -1.86824152      1.23766207
H       4.43298490     -0.11113727      1.03504311
H       3.46537848     -0.36793588     -1.31141643
H       1.81178202     -0.91175426     -1.54488164
H       3.06727732     -2.08943200     -1.13558816
H       1.25823093     -0.50955188      2.18953140
H      -0.75975644     -1.19109696      1.07975380
H      -0.04157104     -1.16082235     -0.51124889
H       0.13125646      1.36752650     -0.37798410
H      -0.54467602      1.31901570      1.23511236
H      -1.90884409     -0.58334402     -1.92055354
H      -1.23698947      1.00043009     -2.35878868
H      -2.97305981      0.78346472     -2.26963763
H      -2.84150241      1.54439760      1.46488711
H      -4.63945406      1.07139721     -1.03449112
