40
Clc1ccccc1-n1cnnc1-c1cc2c(s1)-c1ccccc1OCC2
Cl      4.72015964     -2.78936811      1.22636129
C       4.26234930     -1.53747084      0.12450329
C       4.67060602     -1.70582138     -1.20494026
C       4.26625267     -0.80715074     -2.19178756
C       3.44596311      0.26534253     -1.85757143
C       3.03407333      0.44620134     -0.53587193
C       3.43934882     -0.45261038      0.46799977
N       3.03455864     -0.19706363      1.80485626
C       3.84300074     -0.24408739      2.91654939
N       3.22261333      0.24473403      3.96388539
N       1.96641806      0.61062703      3.56206075
C       1.83164986      0.30417476      2.28473763
C       0.58074073      0.43654550      1.59420331
C      -0.30682012      1.47918385      1.72059079
C      -1.48487870      1.32915744      0.90922593
C      -1.48247442      0.12584647      0.20555998
S      -0.03978365     -0.76003369      0.55914409
C      -2.47936787     -0.43331948     -0.75378925
C      -2.46775125     -1.80186438     -1.10188014
C      -3.34685685     -2.33614655     -2.05241718
C      -4.26693575     -1.51492393     -2.68840600
C      -4.32169664     -0.16726489     -2.35339927
C      -3.46202564      0.36108279     -1.37891236
O      -3.66112647      1.69664640     -1.13445948
C      -3.85183419      1.95455268      0.25849147
C      -2.53890085      2.39979355      0.87120470
H       5.29432335     -2.55239772     -1.48517803
H       4.58502428     -0.94940135     -3.22183686
H       3.12966452      0.96821125     -2.62571305
H       2.42409997      1.31942075     -0.31062939
H       4.87185767     -0.57286276      2.90395766
H      -0.11635425      2.33445018      2.36092345
H      -1.76787302     -2.49435756     -0.64005010
H      -3.30088313     -3.39467029     -2.29670389
H      -4.94361550     -1.92147460     -3.43479814
H      -5.04810626      0.48037178     -2.83817890
H      -4.57311629      2.77691392      0.32744897
H      -4.29916452      1.10253214      0.78945621
H      -2.72703253      2.75113142      1.89307598
H      -2.13610618      3.24536989      0.29899206
