7
[Nd+3].[OH-].[OH-].[OH-]
Nd      0.00000000      0.00000000      0.00000000
O       0.49013654      0.00000000      0.00000000
O       0.49773717      0.00000000      0.00000000
O       0.49491008      0.00000000      0.00000000
H      -0.49013654      0.00000000      0.00000000
H      -0.49773717      0.00000000      0.00000000
H      -0.49491008      0.00000000      0.00000000
