12
Cc1cc(=O)[nH]o1
C      -1.89551539      0.08765507     -0.05485114
C      -0.41164508      0.09204751      0.01140013
C       0.39396157     -0.95971375      0.13646332
C       1.72799812     -0.37583323      0.10011433
O       2.76524594     -1.00901245      0.03647939
N       1.58227493      0.98754666      0.12135592
O       0.21938897      1.32496434     -0.06381750
H      -2.31461567      0.67424850      0.76858666
H      -2.23523656      0.52480673     -0.99892292
H      -2.29890640     -0.92784614      0.01289927
H       0.17302525     -2.00734780      0.19913123
H       2.29402431      1.58848455     -0.26883870
