48
C#C[C@]1(O)CC[C@H]2[C@@H]3CCC4=CC(=O)CC[C@@H]4[C@H]3CC[C@@]21C
C      -3.99297053     -2.56514226      0.91558365
C      -3.79486892     -1.43202423      0.56833980
C      -3.57188758     -0.03397468      0.13904855
O      -4.54814777      0.77916912      0.77468271
C      -3.70659043      0.07886651     -1.40272758
C      -2.27379556      0.09555972     -1.97411896
C      -1.37122218     -0.17004756     -0.77134543
C       0.09752044      0.25817365     -0.84812316
C       0.81842546     -0.38583869     -2.03949789
C       2.27047689      0.07366087     -2.10431242
C       3.00606869     -0.16594480     -0.80913539
C       4.22735149     -0.72744108     -0.82378760
C       5.04141093     -0.82149295      0.40964011
O       6.11969747     -1.40853858      0.38262756
C       4.54418327     -0.09340728      1.63070299
C       3.03175144     -0.20415381      1.72953179
C       2.30861970      0.30209458      0.46268919
C       0.81185536     -0.13641556      0.47781794
C       0.05398121      0.39087287      1.72260494
C      -1.44907866      0.05704856      1.71367129
C      -2.12815067      0.49074958      0.40200840
C      -2.12779187      2.04765421      0.34561286
H      -4.16609546     -3.56892040      1.22923803
H      -5.41269361      0.36754172      0.60543960
H      -4.23091018      0.99749191     -1.69308559
H      -4.27855781     -0.75299806     -1.83127733
H      -2.05926005      1.06845550     -2.43050527
H      -2.14942947     -0.66701427     -2.74999204
H      -1.36848813     -1.26172822     -0.62242389
H       0.15716363      1.34570560     -0.97856737
H       0.32201530     -0.11260686     -2.97773206
H       0.77671536     -1.47992754     -1.96238071
H       2.30038899      1.14857549     -2.32427656
H       2.76512114     -0.43101344     -2.94307470
H       4.71162679     -1.07155812     -1.73077607
H       5.00138231     -0.54275794      2.51880838
H       4.86324095      0.95251303      1.56853134
H       2.69905642      0.36423004      2.60551002
H       2.76659705     -1.25474335      1.91037607
H       2.34859608      1.40058481      0.46297730
H       0.79011432     -1.23563228      0.54292691
H       0.19775395      1.47355090      1.81252679
H       0.47980688     -0.04867611      2.63189610
H      -1.54300688     -1.02521933      1.86107204
H      -1.93692006      0.52960630      2.57466005
H      -2.65505689      2.46387288      1.21213955
H      -1.12238703      2.47567605      0.35618118
H      -2.62361179      2.43556345     -0.54970513
