26
CC(C)C(NCCC#N)C(=O)O
C      -1.97038655     -1.46135472      1.03534400
C      -1.88169217     -0.13111611      0.27916542
C      -2.30561267     -0.33753710     -1.18009545
C      -0.47859861      0.50807306      0.43383689
N       0.56925778     -0.31253876     -0.23352971
C       1.91433980      0.00433891      0.26872281
C       2.96793806     -0.85889737     -0.43075643
C       4.30699758     -0.55381875      0.08733930
N       5.36321169     -0.30748153      0.50010192
C      -0.48319638      1.93772145     -0.12790946
O       0.05568643      2.31314933     -1.15886207
O      -1.16505061      2.80688915      0.64357138
H      -1.70157590     -1.32837854      2.08856783
H      -2.99133421     -1.85682359      1.00100112
H      -1.30505763     -2.21780436      0.60622343
H      -2.61589059      0.54822786      0.73290753
H      -1.65918679     -1.05560951     -1.69504368
H      -2.28460781      0.60372997     -1.73799017
H      -3.33001723     -0.72321251     -1.22859521
H      -0.24330213      0.57935265      1.50407105
H       0.52890521     -0.09972017     -1.23563448
H       1.95534557     -0.18420193      1.34908880
H       2.14700386      1.06458253      0.11150715
H       2.74761329     -1.92149220     -0.27375093
H       2.94369958     -0.67939699     -1.51215741
H      -1.08448956      3.66331924      0.17287638
