58
CCN(CCO)c1ccc(N=Nc2sc3cc(OC)ccc3[n+]2C)cc1.COS(=O)(=O)[O-]
C      -5.81143599      0.42793399      2.33834220
C      -5.96351474     -0.60207370      1.22802002
N      -5.21830219     -0.19660382      0.02412937
C      -6.03162413     -0.06339413     -1.20996422
C      -6.72037556      1.30806194     -1.25284731
O      -5.76396566      2.35528177     -1.10100663
C      -3.83241583     -0.30201910     -0.06018087
C      -3.10830252      0.31709842     -1.09481002
C      -1.71116631      0.24052680     -1.18548476
C      -0.97588545     -0.45247762     -0.22536612
N       0.42597209     -0.55691408     -0.30488531
N       0.95375821      0.55825116     -0.09769503
C       2.30080178      0.57405719     -0.22950264
S       3.08733435      1.58893652     -1.36160887
C       4.63779515      0.98422428     -0.92257293
C       5.89451151      1.31932923     -1.44772474
C       7.03184233      0.68618800     -0.93248164
O       8.20070392      1.08557777     -1.51581739
C       9.41051700      0.50724469     -1.03633992
C       6.90660200     -0.25992838      0.08185171
C       5.64678175     -0.59145798      0.60807925
C       4.49905853      0.04684960      0.09743161
N       3.17671541     -0.12287096      0.47596827
C       2.76831132     -1.01417678      1.55142847
C      -1.66574389     -1.07999067      0.80818924
C      -3.06497303     -0.99451158      0.89023080
C      -1.25476608     -0.20907659     -0.11885389
O      -0.22181795      0.72814818     -0.32744542
S       1.28805070      0.27675684      0.09721973
O       1.54556394     -0.89537594     -0.73508741
O       2.09602126      1.44644379     -0.23068142
O       1.17621916     -0.00649880      1.52554550
H      -6.41121667      0.13736371      3.20664118
H      -6.15164677      1.41427588      2.00520998
H      -4.77269434      0.52826281      2.66604106
H      -5.67001365     -1.60165553      1.56628484
H      -7.03399611     -0.67930286      0.99916054
H      -6.79121272     -0.85416738     -1.24376071
H      -5.43019168     -0.20195935     -2.11461455
H      -7.45422537      1.40471931     -0.44656171
H      -7.23903356      1.44562176     -2.20662275
H      -5.21603118      2.07586826     -0.34020143
H      -3.61772965      0.90687998     -1.85447306
H      -1.20949183      0.73635327     -2.01268344
H       5.99355527      2.05566637     -2.24361903
H       9.56720898      0.74405093      0.02141320
H      10.23777518      0.94455413     -1.60360289
H       9.42301812     -0.57469400     -1.20557476
H       7.77850613     -0.76696066      0.49038761
H       5.59717616     -1.34001300      1.39477987
H       3.52912885     -1.04365896      2.33685432
H       2.62246065     -2.02077268      1.14759015
H       1.84394002     -0.66870785      2.02471304
H      -1.12906791     -1.64443823      1.56472769
H      -3.53921792     -1.50659688      1.72252832
H      -1.35787232     -0.44759085      0.94406438
H      -1.07652482     -1.12377473     -0.69199983
H      -2.19487389      0.23096808     -0.46276163
