22
ClCC1CO1.OCC#CCO
Cl     -1.65018530      1.73462800     -0.06542310
C      -1.14122000      0.06048552     -0.37423047
C      -0.02927210     -0.28118638      0.55360295
C       1.40768940      0.00132943      0.20081713
O       0.84511034     -1.31384151      0.07871212
O      -2.24234457     -1.39968689     -0.60933588
C      -2.01581799      0.00197982     -0.57013158
C      -0.62631661      0.26776974     -0.19588689
C       0.51577495      0.47169817      0.11756506
C       1.91061082      0.70181036      0.49558651
O       2.53159374     -0.53525589      0.81428375
H      -0.84577659     -0.01345375     -1.42528382
H      -2.00123025     -0.59331501     -0.20406487
H      -0.32269287     -0.30800384      1.59450521
H       2.10914834      0.17216907      1.00798604
H       1.62842901      0.54118847     -0.71162627
H      -1.92739527     -1.75421595      0.23976829
H      -2.71128153      0.44482649      0.14905733
H      -2.24108702      0.41109133     -1.55911414
H       1.97749771      1.35221452      1.37234499
H       2.46993578      1.16966188     -0.32006440
H       2.35883000     -1.13189358      0.06592697
