37
CCCCCCCOC(=O)c1ccc(O)c(Cl)c1
C       6.65202974     -0.55051096      0.10333259
C       5.15410916     -0.75621956     -0.06403496
C       4.54629534      0.30102008     -0.98659127
C       3.06076558      0.07204034     -1.27954290
C       2.16681888      0.22619495     -0.04724788
C       0.68961383      0.10095293     -0.41694564
C      -0.21121848      0.24926929      0.80422760
O      -1.57176470      0.11963032      0.36882624
C      -2.48711288      0.23204462      1.36237100
O      -2.24278141      0.42630157      2.54214540
C      -3.86599031      0.08520217      0.82185045
C      -4.94086817      0.17569557      1.72069200
C      -6.25529947      0.04527737      1.26708242
C      -6.49517004     -0.17544803     -0.08406233
O      -7.79817775     -0.29631659     -0.47950485
C      -5.43287549     -0.26706177     -0.98641626
Cl     -5.73557662     -0.54102434     -2.66196012
C      -4.11784157     -0.13767625     -0.53964443
H       6.86687990      0.43165363      0.53640270
H       7.16835615     -0.62264194     -0.85923669
H       7.06720540     -1.31373298      0.76897898
H       4.68347162     -0.71619886      0.92397424
H       4.97248861     -1.75688073     -0.47272138
H       5.08698122      0.29603829     -1.94130671
H       4.68593816      1.29787120     -0.55086994
H       2.92138503     -0.92435576     -1.71634028
H       2.74780954      0.79692785     -2.04136995
H       2.34688570      1.20269764      0.41814733
H       2.41540209     -0.53962831      0.69580974
H       0.41794595      0.85978202     -1.16146902
H       0.49820178     -0.86877770     -0.89334966
H       0.01419919     -0.53442683      1.53697678
H      -0.06641634      1.23463146      1.26249274
H      -4.75773158      0.34858362      2.78041925
H      -7.08578084      0.11569288      1.96475546
H      -7.79755906     -0.44598492     -1.44363411
H      -3.30061815     -0.21101670     -1.25223654
