22
CC1=CCC2C(=O)OC(=O)C2C1
C       2.82130601      0.07030955      0.43885815
C       1.38133719     -0.15592228      0.06880178
C       0.88142212     -1.38959118     -0.09624785
C      -0.54145149     -1.68817963     -0.44652691
C      -1.48281714     -0.49402869     -0.41035364
C      -2.14645131     -0.25977128      0.91369080
O      -2.47815621     -1.11092408      1.72102176
O      -2.42401802      1.06407756      1.03735708
C      -1.80502303      1.75535167      0.04801243
O      -1.95332556      2.94752482     -0.16384393
C      -0.85165006      0.85646600     -0.67582624
C       0.54574026      1.08282405     -0.08957291
H       2.88797543      0.61341403      1.38713100
H       3.32432046      0.65808819     -0.33577405
H       3.37077689     -0.86993824      0.55370933
H       1.53063990     -2.25620898      0.02386608
H      -0.90516782     -2.48678815      0.21043754
H      -0.53978795     -2.10154572     -1.46328829
H      -2.30655938     -0.67084889     -1.11651889
H      -0.87042691      1.07197110     -1.74978230
H       0.48812503      1.57578685      0.89057177
H       1.07319159      1.78793328     -0.74572271
