46
CCCN(CCC)C(=O)COC(=O)c1ccccc1OC(C)=O
C      -3.55058947      3.31311585      1.69855124
C      -2.99787297      2.25186654      0.76073498
C      -2.66965863      0.95978493      1.51013269
N      -2.10476109     -0.05792092      0.62107245
C      -3.04473067     -0.87120643     -0.15263350
C      -3.15147697     -2.31303811      0.35058892
C      -3.74460851     -2.41597660      1.74738703
C      -0.74342514     -0.19714038      0.34935691
O      -0.32484989     -1.03309504     -0.45715744
C       0.23457784      0.69871803      1.12315665
O       1.56035116      0.63408684      0.59371787
C       1.72924617      1.34680132     -0.54717271
O       0.91447764      2.10980575     -1.04166240
C       3.10166265      1.16830458     -1.06657226
C       3.73327635      2.29099820     -1.62199508
C       5.04129562      2.19812926     -2.10434953
C       5.72602334      0.98448224     -2.03858209
C       5.10094093     -0.14322178     -1.50510446
C       3.78331755     -0.05301110     -1.04281178
O       3.18637516     -1.20532738     -0.52299750
C       2.74265845     -2.08513644     -1.50402635
C       2.15045454     -3.30094136     -0.85382573
O       2.82326843     -1.92776381     -2.71611182
H      -2.82456704      3.56416218      2.47978995
H      -4.47045265      2.96844492      2.18145423
H      -3.78038980      4.22800575      1.14207387
H      -3.73136922      2.05221221     -0.02885868
H      -2.10275092      2.64033758      0.26201670
H      -3.57169815      0.54798693      1.97748989
H      -1.96564125      1.16544391      2.32251460
H      -2.70608129     -0.88510489     -1.19563781
H      -4.03127091     -0.39284396     -0.14787440
H      -3.78818718     -2.87607708     -0.34193509
H      -2.16816778     -2.79751041      0.34419155
H      -3.09554643     -1.94371640      2.49151600
H      -3.86375353     -3.46742722      2.02900561
H      -4.72899784     -1.93864901      1.79269088
H      -0.10430914      1.73853172      1.15397045
H       0.28256206      0.32708484      2.15239574
H       3.20822122      3.24268599     -1.67664766
H       5.52508808      3.07257058     -2.53333963
H       6.74355442      0.91360588     -2.41509465
H       5.63135360     -1.09073306     -1.47059824
H       1.07667809     -3.17181222     -0.71739201
H       2.63118228     -3.49263250      0.11045612
H       2.33859089     -4.16985685     -1.49188348
