45
O=C1CCC/C=C\CCCCCCCCCC1
O       2.72467756     -1.61188129     -1.31954537
C       2.38519198     -1.62305674     -0.13559594
C       1.79599036     -2.86128554      0.51841160
C       1.10427844     -3.78294278     -0.48648208
C      -0.21426695     -3.22004040     -1.03934849
C      -1.31675646     -3.21456329     -0.01512316
C      -2.19601284     -2.23480762      0.25271865
C      -2.29372834     -0.87827988     -0.39368338
C      -2.81112211      0.17397750      0.59733461
C      -3.12734370      1.53202946     -0.04429558
C      -1.96205333      2.23039630     -0.75065051
C      -0.78431432      2.52739904      0.17886648
C       0.37269665      3.18399747     -0.58001666
C       1.65327813      3.33860092      0.25162695
C       2.15833691      2.06534435      0.94291734
C       2.31485919      0.87202473     -0.00131783
C       2.60873130     -0.41825646      0.76057817
H       2.62427411     -3.39355478      0.99921770
H       1.09167640     -2.56103322      1.30045232
H       1.77748402     -3.98748882     -1.32813085
H       0.91397490     -4.75003462     -0.00379378
H      -0.53825827     -3.87015637     -1.86169496
H      -0.05074108     -2.22901681     -1.47218061
H      -1.43800019     -4.14915703      0.53383780
H      -2.96204478     -2.45499253      0.99703601
H      -1.32144258     -0.56482256     -0.78482090
H      -2.99042308     -0.94901949     -1.23713416
H      -2.09377052      0.29895709      1.41700453
H      -3.73698395     -0.19025068      1.06247311
H      -3.51933820      2.19822081      0.73444312
H      -3.93918098      1.39726131     -0.77002013
H      -1.62589049      1.62000254     -1.59685054
H      -2.32863783      3.17274653     -1.17641730
H      -0.44914442      1.59054140      0.62972627
H      -1.10700185      3.18227634      0.99673201
H       0.05918886      4.17662610     -0.92675944
H       0.59892153      2.60773465     -1.48513147
H       1.48720916      4.10390151      1.01994033
H       2.44403426      3.72527708     -0.40313969
H       3.12517282      2.28060218      1.41465114
H       1.47526116      1.80874702      1.76142781
H       1.40163422      0.72273742     -0.58692678
H       3.11612790      1.07302821     -0.72284617
H       1.93532464     -0.49782859      1.62083459
H       3.63813177     -0.43996039      1.13167528
