51
CC(=O)[CH-]C(C)=O.[C-]#[O+].[Rh].c1ccc(P(c2ccccc2)c2ccccc2)cc1
C       2.52717695      0.22253160      0.17242097
C       1.14923460      0.47500631      0.65558166
O       0.86933629      1.11556137      1.67571587
C       0.03900531     -0.08401188     -0.14806273
C      -1.34368843      0.10791738      0.24065752
C      -2.41117337     -0.47535040     -0.60364313
O      -1.59983276      0.75933918      1.27624544
C       0.56901420      0.00000000      0.00000000
O      -0.56901420      0.00000000      0.00000000
Rh      0.00000000      0.00000000      0.00000000
C      -4.08671251     -1.85687548      0.73902783
C      -3.65657320     -1.82913373     -0.57295728
C      -2.44991176     -1.28429302     -0.91886830
C      -1.60022454     -0.73222773      0.04002425
P      -0.03982025     -0.04031238     -0.49753057
C       1.41297727     -1.03498766     -0.21354786
C       2.09484426     -1.56401477     -1.29633854
C       3.21947791     -2.33931536     -1.18071004
C       3.70757303     -2.61401790      0.07751279
C       3.07117026     -2.11481100      1.19472450
C       1.94155752     -1.33811367      1.03877727
C       0.14201435      1.71850431     -0.37751317
C      -0.02171890      2.51062470     -1.52050116
C       0.10023313      3.86353839     -1.51561187
C       0.39964831      4.52444516     -0.34443480
C       0.56800776      3.76329607      0.80761263
C       0.44493539      2.38999202      0.80613879
C      -2.04728695     -0.76917337      1.34569571
C      -3.26095087     -1.31468542      1.71138908
H       2.51595397      0.07277744     -0.90540965
H       3.23370566      1.00434847      0.51420153
H       2.84295081     -0.75226139      0.63989675
H       0.24655667     -0.64844877     -1.04441361
H      -2.06996137     -1.42865711     -1.05729521
H      -3.35237623     -0.65540031     -0.05995824
H      -2.64688811      0.28664811     -1.38580588
H      -5.05146552     -2.29645335      0.98730740
H      -4.29990477     -2.25478438     -1.35371754
H      -2.15028349     -1.28174373     -1.95250806
H       1.73496686     -1.36631564     -2.31876646
H       3.74653813     -2.74980364     -2.04833278
H       4.60232092     -3.23094137      0.16769170
H       3.44928671     -2.32565124      2.20780671
H       1.44319548     -0.94824661      1.89296007
H      -0.25858015      2.02046294     -2.46121247
H      -0.02544670      4.48282545     -2.39788293
H       0.49840156      5.60061265     -0.33200347
H       0.80397295      4.29334081      1.72658544
H       0.57712800      1.80360178      1.70579351
H      -1.40270240     -0.34647965      2.10089129
H      -3.60666779     -1.33886319      2.75249833
