49
CC(C)=C[C@@H]1[C@@H](C(=O)OCN2C(=O)C3=C(CCCC3)C2=O)C1(C)C
C      -4.63199696      0.57930512      2.35322449
C      -3.53739010      0.37248220      1.34068685
C      -2.60457844      1.54017827      1.17782062
C      -3.42912105     -0.78219538      0.65396633
C      -2.42876900     -1.12906009     -0.36657054
C      -2.44870420     -0.40107832     -1.69658960
C      -1.20485355      0.02894958     -2.37638102
O      -1.16135374      0.20361931     -3.58528515
O      -0.17787917      0.21096145     -1.51101227
C       1.02626618      0.61417358     -2.15733700
N       2.04624509      0.70466087     -1.15066312
C       2.81406186     -0.33946663     -0.74710435
O       2.83585263     -1.48126380     -1.16656059
C       3.65646134      0.16284954      0.33947620
C       3.34972855      1.44684891      0.53896313
C       3.96065603      2.31603594      1.57132418
C       4.74631464      1.47396375      2.59336110
C       5.55886096      0.35088934      1.92861069
C       4.68135373     -0.59780991      1.09175491
C       2.29626582      1.81330802     -0.41003335
O       1.78051949      2.91283073     -0.47947745
C      -2.83445095     -1.87143416     -1.63186218
C      -1.87293998     -2.91263156     -2.15674024
C      -4.27977457     -2.20560929     -1.91392522
H      -4.20328590      0.80260279      3.33481521
H      -5.26637362     -0.30658630      2.46718500
H      -5.27300982      1.41422310      2.05350159
H      -1.74069696      1.31255888      0.54806572
H      -3.13677182      2.38448584      0.72818858
H      -2.21709454      1.85447895      2.15225847
H      -4.14979114     -1.57002200      0.87378473
H      -1.46122622     -1.37995388      0.06199855
H      -3.25918735      0.30440467     -1.86082913
H       1.32500047     -0.13318662     -2.90111654
H       0.88962601      1.59609668     -2.62272650
H       4.63701617      3.02742810      1.08326133
H       3.19220424      2.89342959      2.09884165
H       4.04504519      1.02870901      3.31036474
H       5.41323066      2.12726105      3.16753392
H       6.32077483      0.80342143      1.28057190
H       6.09482291     -0.22570912      2.69119290
H       4.18188971     -1.31554460      1.75432125
H       5.31759563     -1.17016518      0.40608290
H      -2.11317367     -3.89555556     -1.73745513
H      -0.83295892     -2.69076801     -1.89751673
H      -1.94472477     -2.97707143     -3.24816259
H      -4.43490827     -2.32404112     -2.99007234
H      -4.96760273     -1.42706950     -1.57083757
H      -4.55717469     -3.14393423     -1.42289833
