9
C=CC(=O)[O-].[Na+]
C      -1.24408991     -0.17189965     -0.01670892
C      -0.03710135      0.11375455      0.48996810
C       1.25911580      0.08935011     -0.33222905
O       1.14493298     -0.22119888     -1.54991108
O       2.28878935      0.39045328      0.33689381
Na      0.00000000      0.00000000      0.00000000
H      -1.34671771     -0.43981990     -1.06494029
H      -2.13227029     -0.14216596      0.60034966
H       0.06734114      0.38152646      1.53657777
