19
CC1CCC(C)O1
C       2.37833372      0.25081266      0.77383239
C       1.08025589     -0.38331301      0.31291939
C       0.77813889     -0.14467843     -1.15717989
C      -0.72773588     -0.23904756     -1.17420346
C      -1.08978538      0.45586442      0.12788344
C      -2.41046961     -0.00615888      0.71259689
O      -0.02269814      0.17280328      1.04990032
H       3.23336005     -0.14905740      0.22081720
H       2.53357824      0.06654074      1.84221041
H       2.35204683      1.33841795      0.64526420
H       1.09890561     -1.45900290      0.52511997
H       1.08836904      0.86096707     -1.46609732
H       1.26620493     -0.87008809     -1.81396767
H      -1.03165049     -1.29277960     -1.15744372
H      -1.18269666      0.23432925     -2.04868818
H      -1.10989608      1.54268602     -0.01668420
H      -2.38633048     -1.07742266      0.94044902
H      -3.23867823      0.18954649      0.02516560
H      -2.60925224      0.50958064      1.65810561
