61
CC12CCC(=O)C=C1CCC1C2CCC2(C)C(OC(=O)c3ccccc3)CCC12
C      -4.47370818     -1.31599156      1.15424062
C      -3.52329242     -0.30495484      0.47212590
C      -3.71845905      1.09650154      1.11304675
C      -5.08418328      1.71816920      0.83325400
C      -5.42213289      1.69926329     -0.63556546
O      -6.24283124      2.47003808     -1.12644764
C      -4.76024836      0.70040298     -1.50435958
C      -3.90149255     -0.20612523     -1.00800885
C      -3.16667248     -1.13966942     -1.92436771
C      -1.67476607     -0.80908977     -1.91778036
C      -1.13047284     -0.35155069     -0.53958063
C      -2.03482320     -0.83890977      0.62353115
C      -1.42016808     -0.53578490      2.00433000
C       0.02866817     -1.00146505      2.12259042
C       0.94082109     -0.40822064      1.02346162
C       1.12775132      1.10290609      1.24086695
C       2.29353791     -1.16450680      0.98353657
O       3.25704230     -0.44012494      0.19141772
C       4.27853483      0.15612330      0.85082750
O       4.48594992      0.10718397      2.05144277
C       5.12614081      0.92426789     -0.10011066
C       4.86299933      0.96575257     -1.47628590
C       5.68164282      1.71485747     -2.32472355
C       6.76156136      2.42635371     -1.80674499
C       7.03042566      2.38802647     -0.43945450
C       6.21595995      1.63981972      0.41252055
C       1.98952188     -2.45950877      0.22222902
C       0.72703414     -2.18907496     -0.60232154
C       0.36497448     -0.70968012     -0.37773970
H      -4.30521291     -1.35281027      2.23508885
H      -5.52789667     -1.06442265      0.99553404
H      -4.32936694     -2.32902362      0.76134770
H      -2.94493878      1.78003181      0.73791424
H      -3.59451032      1.04888485      2.20175123
H      -5.87672339      1.19559613      1.37872212
H      -5.07370155      2.76021203      1.17079662
H      -4.99503838      0.77322192     -2.55993890
H      -3.54321645     -1.08876794     -2.95246766
H      -3.32734757     -2.17254906     -1.59407115
H      -1.14583697     -1.68821614     -2.29734241
H      -1.47400723     -0.01060170     -2.64344889
H      -1.18273726      0.74715012     -0.53408424
H      -2.06907520     -1.93524164      0.54405444
H      -1.45339136      0.53479955      2.22333586
H      -2.01131378     -1.02886016      2.78476214
H       0.41485157     -0.72939003      3.11221719
H       0.03668461     -2.09718340      2.09188541
H       1.62175976      1.29755898      2.19844285
H       0.17611244      1.64205506      1.24448760
H       1.73459692      1.55818788      0.45173198
H       2.68187552     -1.39008539      1.98288019
H       4.02344550      0.42250332     -1.90203400
H       5.46882961      1.74447174     -3.38933668
H       7.39464005      3.01113630     -2.46871125
H       7.87313136      2.94230402     -0.03436163
H       6.43332909      1.62024791      1.47869454
H       1.79728448     -3.28292334      0.92001548
H       2.81934795     -2.75908197     -0.42731821
H       0.91261959     -2.39437789     -1.66250198
H      -0.07489788     -2.86189610     -0.27895307
H       0.92138886     -0.12793911     -1.12784925
