27
Nc1ccc(O)c2c1C(=O)c1ccccc1C2=O
N       2.66179250     -2.34582302      0.14496759
C       2.40108372     -0.96547746      0.20489532
C       3.49204476     -0.08963632      0.12013853
C       3.30042199      1.28737477      0.02388827
C       2.01117060      1.80111872     -0.03234741
O       1.91044086      3.16247973     -0.13768202
C       0.90046750      0.94636068      0.00594693
C       1.09219010     -0.43605511      0.12195473
C      -0.09350141     -1.33011905      0.20767318
O       0.02717937     -2.52554119      0.46108240
C      -1.44516155     -0.76955972      0.01779234
C      -2.55654323     -1.62300548     -0.00457244
C      -3.83924807     -1.09830014     -0.17251249
C      -4.01679598      0.27713790     -0.31498729
C      -2.91187463      1.12935851     -0.28971709
C      -1.62430882      0.60241032     -0.12367178
C      -0.46264276      1.50527163     -0.09329193
O      -0.61767435      2.72192372     -0.15995268
H       3.51058187     -2.64435674      0.61293084
H       1.84505993     -2.90821161      0.41562758
H       4.50735706     -0.48041612      0.11698984
H       4.15585199      1.95628802     -0.02836584
H       0.95550374      3.39949246     -0.17140592
H      -2.42781630     -2.69822564      0.10896701
H      -4.69985191     -1.76360370     -0.19034078
H      -5.01631286      0.68672466     -0.44448004
H      -3.05941411      2.20239017     -0.39952685
