37
CC1(C)CC(O)CC(C)(C)N1CCO
C      -1.28297366     -1.67027660     -1.04058506
C      -0.41522573     -1.22165096      0.15848689
C       0.36847641     -2.47717633      0.64096620
C      -1.33725481     -0.85677769      1.34969162
C      -2.00034663      0.49889312      1.20132339
O      -2.74665243      0.80225343      2.37955193
C      -0.92154164      1.55085597      1.03011974
C      -0.01418258      1.28508236     -0.19472527
C      -0.79485034      1.64231106     -1.48328185
C       1.13739894      2.31723497     -0.08455537
N       0.52961037     -0.10699344     -0.15793757
C       1.53214935     -0.42076605     -1.20875969
C       2.98427291     -0.25717079     -0.71839941
O       3.13149857     -0.76457859      0.60382987
H      -0.68283249     -1.90800835     -1.92426908
H      -2.02584314     -0.92785546     -1.33238302
H      -1.84500057     -2.57871395     -0.78989836
H       1.01572350     -2.24249992      1.49316715
H      -0.32245444     -3.26131056      0.97573040
H       0.98767080     -2.92545106     -0.14139380
H      -0.76263715     -0.86036160      2.28788666
H      -2.11001961     -1.62471223      1.49143272
H      -2.70409078      0.51247238      0.36420603
H      -3.40554715      0.09746684      2.50089300
H      -0.31616602      1.59071051      1.94792792
H      -1.39179371      2.54143985      0.96115342
H      -1.10526312      2.69482479     -1.46185591
H      -0.19274198      1.51826403     -2.38788367
H      -1.70767550      1.06141621     -1.61029563
H       1.79261184      2.09712399      0.76615966
H       0.74483408      3.33050556      0.06704536
H       1.74516543      2.35395571     -0.99438756
H       1.44084447     -1.45906197     -1.54058734
H       1.39042645      0.16240341     -2.12311179
H       3.29983111      0.78832733     -0.71325225
H       3.66891030     -0.80449896     -1.37392249
H       2.31566895     -0.47767702      1.06191315
