35
COCCN(C(=O)CCl)c1c(C)cccc1C
C       3.63213981     -0.25034894     -2.12097689
O       2.56753287     -0.60633200     -1.24915051
C       2.70834210      0.01525408      0.03265788
C       1.49796806     -0.32991575      0.91071105
N       0.29883036      0.45657733      0.58053565
C       0.26590822      1.80534625      0.93807603
O       1.24253751      2.35782352      1.45847963
C      -0.99815885      2.60424482      0.65512148
Cl     -0.74369218      3.58636547     -0.80347395
C      -0.87930642     -0.27863752      0.29178233
C      -1.25842149     -0.48081803     -1.05032918
C      -0.44019888      0.00068113     -2.21735222
C      -2.42237504     -1.21589442     -1.32240663
C      -3.20307023     -1.72594976     -0.28813686
C      -2.82722503     -1.51874986      1.03661556
C      -1.66679893     -0.79457203      1.34671409
C      -1.28966660     -0.61730049      2.79265460
H       3.63313472      0.82868364     -2.30270186
H       3.48198363     -0.76396053     -3.07430934
H       4.59287546     -0.56400049     -1.70159435
H       2.82399341      1.09663067     -0.09268238
H       3.61340089     -0.38291204      0.50566750
H       1.27242022     -1.39937774      0.81784092
H       1.74791041     -0.12181356      1.95802678
H      -1.18242326      3.27678930      1.49848492
H      -1.89273652      1.99962464      0.51226272
H      -1.09511094      0.35107681     -3.02280540
H       0.17670549     -0.81808132     -2.59993997
H       0.21014250      0.83934952     -1.95745689
H      -2.72343677     -1.39940269     -2.35215897
H      -4.10160400     -2.29396228     -0.51630864
H      -3.44683019     -1.93438249      1.82869602
H      -2.07835879     -0.98248348      3.45946262
H      -1.13750892      0.44003898      3.02866559
H      -0.37890263     -1.17959073      3.01932867
