38
c1ccc(CNCCNCc2ccccc2)cc1
C       4.50653699      2.30937794     -1.69258080
C       4.28699410      1.05597649     -2.26070051
C       3.78023533      0.01521806     -1.48103081
C       3.49291692      0.21585349     -0.12284082
C       2.93554260     -0.91110398      0.71349054
N       1.52951654     -1.14839353      0.38970414
C       0.95797090     -2.18278315      1.26295425
C      -0.51703419     -2.47362186      0.91229525
N      -1.30363567     -1.23698579      0.80654797
C      -2.70404362     -1.53358667      0.50832150
C      -3.48883722     -0.25896004      0.30938707
C      -3.83284763      0.54033813      1.40950697
C      -4.55024787      1.72401036      1.23027798
C      -4.92635460      2.12396541     -0.05056382
C      -4.58185696      1.34355938     -1.15287945
C      -3.86392940      0.15922476     -0.97530537
C       3.70831282      1.48415819      0.43484827
C       4.21559956      2.52425142     -0.34647534
H       4.89873944      3.12026551     -2.30035702
H       4.50468415      0.88900560     -3.31209571
H       3.59840205     -0.95648297     -1.93526057
H       3.53040465     -1.81375849      0.52573681
H       3.05191999     -0.66860627      1.77738322
H       1.01654408     -0.28132768      0.55894814
H       1.01498317     -1.85505556      2.30861237
H       1.52719032     -3.11522330      1.17080093
H      -0.55368758     -3.01633951     -0.04068509
H      -0.93620353     -3.12574575      1.68752362
H      -0.92423563     -0.69346258      0.02922895
H      -3.15972673     -2.10072648      1.32966348
H      -2.78441106     -2.15630041     -0.39167002
H      -3.53076057      0.24206858      2.41118912
H      -4.81004666      2.33565505      2.08998482
H      -5.48273647      3.04684370     -0.19017183
H      -4.86926365      1.65913613     -2.15232392
H      -3.59720772     -0.43448473     -1.84644650
H       3.48018247      1.67036788      1.48165317
H       4.38039071      3.50367268      0.09472836
