19
[C-]#N.[C-]#N.[C-]#N.[C-]#N.[C-]#N.[C-]#N.[Fe+2].[Fe+3].[NH4+]
C       0.73065300      0.00000000      0.00000000
N      -0.73065300      0.00000000      0.00000000
C       0.73065300      0.00000000      0.00000000
N      -0.73065300      0.00000000      0.00000000
C       0.73065302      0.00000000      0.00000000
N      -0.73065302      0.00000000      0.00000000
C       0.73065302      0.00000000      0.00000000
N      -0.73065302      0.00000000      0.00000000
C       0.73065301      0.00000000      0.00000000
N      -0.73065301      0.00000000      0.00000000
C       0.73065299      0.00000000      0.00000000
N      -0.73065299      0.00000000      0.00000000
Fe      0.00000000      0.00000000      0.00000000
Fe      0.00000000      0.00000000      0.00000000
N       0.00000001      0.00000001     -0.00000003
H      -0.02441513     -0.71971341      0.73188259
H       0.82858197     -0.13984457     -0.59002620
H       0.04241688      0.92912040      0.43493875
H      -0.84658372     -0.06956243     -0.57679511
