22
CC(C)c1ccc(C#N)cc1
C      -1.99302998     -1.60892093      0.41691864
C      -1.65288400     -0.12904393      0.22388330
C      -2.28514708      0.41324056     -1.06031635
C      -0.15214465      0.10692824      0.25013625
C       0.70049110     -0.46770304     -0.70507184
C       2.07859822     -0.23765035     -0.66267250
C       2.62445983      0.57144472      0.33694111
C       4.03749216      0.80784961      0.38112876
N       5.18180992      0.99931340      0.41693462
C       1.78545103      1.14884322      1.29324288
C       0.40755545      0.91770190      1.24931143
H      -3.07757617     -1.74931304      0.47995044
H      -1.55075046     -1.99475818      1.34219410
H      -1.62593231     -2.22542666     -0.41081341
H      -2.10658951      0.41731989      1.06150983
H      -2.05207652      1.47563724     -1.19300861
H      -1.93010342     -0.11982010     -1.94900673
H      -3.37522547      0.31114545     -1.02526148
H       0.29847203     -1.10142859     -1.49306974
H       2.71890644     -0.69462653     -1.41483791
H       2.19535610      1.78153123      2.07826102
H      -0.22713270      1.37773587      2.00455086
