12
Cc1cc(O)no1
C      -2.04363943      0.07466517     -0.09333155
C      -0.57430471     -0.03029116     -0.11063701
C       0.42807888      0.41052207      0.72111185
C       1.58174460     -0.04773766      0.08878439
O       2.85473897      0.09399238      0.45680829
N       1.35813778     -0.71636917     -1.03560024
O      -0.02945412     -0.70605342     -1.16544622
H      -2.38750313      0.63010757      0.78467031
H      -2.49895152     -0.92003630     -0.06668786
H      -2.40157121      0.59497907     -0.98698041
H       0.33538977      0.97252597      1.63649426
H       3.37733412     -0.35630451     -0.22918582
