49
CC(C)(O)C(=O)c1ccc(Cc2ccc(C(=O)C(C)(C)O)cc2)cc1
C       4.44806918     -2.10690831      0.66412297
C       5.40450128     -1.49513947     -0.35392541
C       6.39211568     -0.51415172      0.27125304
O       6.20043328     -2.59773894     -0.84343143
C       4.71240684     -0.88683846     -1.59454411
O       5.17643966     -1.11168891     -2.71908970
C       3.49024892     -0.03428374     -1.49514339
C       3.17766706      0.74558622     -0.37906308
C       2.01307572      1.52169789     -0.36415441
C       1.14694315      1.53920484     -1.46632921
C      -0.11808133      2.36712445     -1.43609102
C      -1.19291532      1.78906000     -0.54285861
C      -1.91592472      0.65584050     -0.94095479
C      -2.89682801      0.10322001     -0.10998234
C      -3.17276738      0.68187266      1.13049845
C      -4.19031009      0.14446187      2.07765655
O      -3.96931035      0.24917392      3.29073732
C      -5.49849087     -0.51564442      1.58911506
C      -6.15495510      0.18452566      0.40239808
C      -5.31667192     -2.01441554      1.35921087
O      -6.43465582     -0.38925317      2.68182345
C      -2.44227177      1.80683254      1.53837294
C      -1.46413197      2.35894993      0.70748722
C       1.46982850      0.76891145     -2.59059151
C       2.63265438     -0.00605765     -2.60525699
H       3.71557896     -2.75281798      0.16548880
H       3.90112339     -1.35755011      1.24157198
H       4.98995586     -2.74295150      1.37524569
H       6.99732847     -1.00920645      1.04130608
H       7.09433612     -0.13799065     -0.48307361
H       5.90450066      0.35003483      0.72654088
H       6.41784213     -2.38062049     -1.77513738
H       3.81719464      0.78657789      0.49429798
H       1.78479468      2.11638269      0.51963246
H      -0.52485907      2.47992725     -2.44980990
H       0.13490180      3.38730793     -1.11770090
H      -1.70921583      0.18637172     -1.90190474
H      -3.40896156     -0.78726797     -0.45523268
H      -6.21381612      1.26723473      0.57516935
H      -7.18523144     -0.16491805      0.26651680
H      -5.62147284      0.01867411     -0.53775229
H      -4.68785822     -2.23680512      0.49361574
H      -4.85748701     -2.48984344      2.23582092
H      -6.28613732     -2.50435244      1.21010183
H      -5.90146515     -0.45647314      3.50251106
H      -2.63223379      2.26014509      2.51093223
H      -0.91308248      3.23300886      1.04904286
H       0.82190300      0.76466867     -3.46520509
H       2.86529212     -0.59421647     -3.49323802
