26
Cc1occc1C(=O)Nc1ccccc1
C      -3.44965802      2.05463771      0.05778631
C      -3.18396262      0.59991803     -0.01705463
O      -4.28358879     -0.20303113     -0.03544078
C      -3.84383181     -1.48052800     -0.10567517
C      -2.46999294     -1.51316550     -0.13264913
C      -2.01973896     -0.15600091     -0.07449448
C      -0.66688831      0.41034354     -0.07236860
O      -0.49538590      1.62344092     -0.03597078
N       0.33947652     -0.53885512     -0.11257182
C       1.73400186     -0.32176085     -0.12433181
C       2.55450302     -1.45811076     -0.16227313
C       3.94659031     -1.33551808     -0.17662727
C       4.53356942     -0.07407404     -0.15333375
C       3.72792718      1.06102524     -0.11585792
C       2.33419335      0.93833401     -0.10148088
H      -2.99463179      2.48194208      0.95653770
H      -3.03932293      2.56492468     -0.81891919
H      -4.52414257      2.26070512      0.09456778
H      -4.61381669     -2.23933779     -0.12894899
H      -1.88201500     -2.41713243     -0.18923130
H       0.05439302     -1.50534112     -0.13227117
H       2.12492086     -2.45615375     -0.18110723
H       4.57119595     -2.22453566     -0.20595004
H       5.61569431      0.02634313     -0.16435547
H       4.18052708      2.04949261     -0.09764427
H       1.74998345      1.85243805     -0.07250074
