19
CNC(CC(=O)O)C(=O)O
C      -0.61806871      2.20095740      0.69887142
N      -1.15707431      0.85613367      0.48749339
C      -0.04999005     -0.13547029      0.31427256
C       0.43555657     -0.24701562     -1.13021014
C       1.86780807     -0.71296213     -1.16608870
O       2.80048157      0.03928343     -1.41056730
O       2.04937748     -2.02144355     -0.90170465
C      -0.61648218     -1.50618980      0.72298508
O      -0.13163546     -2.57620045      0.37685926
O      -1.71609310     -1.39530691      1.50415840
H      -0.02319761      2.24500543      1.61671146
H      -1.44657472      2.90723481      0.81023029
H      -0.00435778      2.53224065     -0.14419646
H      -1.72525863      0.87467181     -0.36637542
H       0.76309741      0.07918012      1.01926100
H      -0.17735658     -0.91542300     -1.74632873
H       0.41685338      0.72975912     -1.62922877
H       1.24393036     -2.52785743     -0.63071637
H      -1.91101570     -0.42659725      1.57457370
