32
Cc1cc(-c2ccc(N=C=O)c(C)c2)ccc1N=C=O
C       3.80053374     -1.69454961     -0.66122799
C       2.94707037     -0.54955410     -0.18899313
C       1.55135536     -0.61163821     -0.35740809
C       0.70866942      0.42815811      0.07074395
C      -0.74972740      0.34536917     -0.10850422
C      -1.45198362      1.35387961     -0.78189716
C      -2.83765794      1.27534630     -0.94809341
C      -3.56563219      0.19323530     -0.43269543
N      -4.95709489      0.13098585     -0.63215642
C      -5.54326453      0.72957904      0.19135747
O      -6.13658281      1.32741272      1.01223806
C      -2.87297832     -0.84631685      0.21632492
C      -3.60204808     -2.04486197      0.75888020
C      -1.47906701     -0.75025297      0.38372121
C       1.29818097      1.54373339      0.68040243
C       2.68385505      1.62227554      0.84659666
C       3.52382772      0.59436077      0.39450973
N       4.91343002      0.69166827      0.59291513
C       5.43560826      1.29858858     -0.26677184
O       5.96496683      1.90566866     -1.12380744
H       3.19186370     -2.56835916     -0.91707251
H       4.36428869     -1.40195552     -1.55254104
H       4.49664008     -2.00546989      0.12457993
H       1.11261774     -1.48610540     -0.83722224
H      -0.92042332      2.20766822     -1.19826782
H      -3.35159114      2.06701864     -1.48894973
H      -4.19641206     -1.76076875      1.63289028
H      -2.90518809     -2.83252406      1.06458057
H      -4.25886808     -2.47408711     -0.00471723
H      -0.95182671     -1.54315292      0.91356429
H       0.67798259      2.35987071      1.04666702
H       3.10945566      2.49477766      1.33751721
