36
Cc1c(Cl)ccc(OC(C)C(=O)Nc2ccccc2)c1Cl
C      -4.36199086     -1.69943235     -1.70645376
C      -3.56769158     -1.04249761     -0.60680990
C      -3.63967961     -1.48833707      0.72277718
Cl     -4.64193755     -2.81276683      1.20449485
C      -2.88135776     -0.87767713      1.72565766
C      -2.02594124      0.18373209      1.42792949
C      -1.91168588      0.63975177      0.11556774
O      -1.09025892      1.66387088     -0.28373766
C      -0.23326875      2.29194560      0.66980311
C       0.28335824      3.57452516      0.02365470
C       0.97206135      1.41141854      1.04871434
O       1.40689474      1.40937785      2.19684466
N       1.46862198      0.69963149     -0.03063673
C       2.56903219     -0.17664158     -0.05908948
C       3.40672293     -0.41274905      1.03180242
C       4.48245021     -1.29975213      0.91906337
C       4.72919772     -1.95576707     -0.28457796
C       3.90061654     -1.72515889     -1.37903232
C       2.82616105     -0.83904305     -1.26657628
C      -2.67632012      0.01574073     -0.89612473
Cl     -2.47522820      0.55738430     -2.54079004
H      -4.79195553     -0.95183341     -2.38113492
H      -3.71898000     -2.37646150     -2.27776204
H      -5.21493087     -2.27196981     -1.33320690
H      -2.94730267     -1.23147191      2.75319616
H      -1.46103579      0.61310241      2.24985812
H      -0.79090719      2.56818756      1.57224716
H       0.97086942      4.10629294      0.68908026
H      -0.55114367      4.23935862     -0.22414910
H       0.80873689      3.36461746     -0.91498388
H       0.92663750      0.77416633     -0.88633624
H       3.25366491      0.07934933      1.98687734
H       5.12721194     -1.47505368      1.77668446
H       5.56597415     -2.64426289     -0.36793783
H       4.08931823     -2.23432173     -2.32053978
H       2.19408620     -0.67725535     -2.13601238
