21
ON=C1C=CC(=NO)c2ncccc21
O       3.69539913     -0.81686453     -0.25280481
N       2.40285178     -1.34027133     -0.13777983
C       1.49212420     -0.41190623     -0.11454405
C       1.76060950      1.04646212     -0.19858879
C       0.78700398      1.95850254     -0.17014933
C      -0.65072982      1.59441878     -0.05190041
N      -1.62828552      2.45418404     -0.02083460
O      -1.18730568      3.77962931     -0.11118449
C      -0.94790622      0.13347518      0.03427840
N      -2.26688421     -0.19847495      0.14265515
C      -2.57351596     -1.50923714      0.22281416
C      -1.62735596     -2.51786209      0.20061651
C      -0.28607039     -2.16055707      0.08952654
C       0.07001021     -0.80844918      0.00402097
H       4.24797728     -1.62088784     -0.25618330
H       2.79428065      1.36134403     -0.28596645
H       1.02991342      3.01281129     -0.23437105
H      -2.02783053      4.27376880     -0.07354793
H      -3.63347441     -1.73315962      0.30800492
H      -1.92490617     -3.55884429      0.26811039
H       0.47409470     -2.93808181      0.07023264
