21
CC1OC(=O)c2cc([N+](=O)[O-])ccc21
C      -2.88208280      0.44326703      0.81931562
C      -2.04997985     -0.07607879     -0.34025043
O      -2.09244822     -1.52239093     -0.34212891
C      -0.84946433     -2.07925129     -0.24345748
O      -0.57871450     -3.26194299     -0.22178626
C       0.09751528     -0.97538079     -0.16871174
C       1.47624473     -1.03744449     -0.05969083
C       2.16088644      0.18215470     -0.00155807
N       3.62506232      0.18599498      0.11435426
O       4.20165478     -0.90906067      0.15588746
O       4.19452690      1.28515701      0.16350226
C       1.46466120      1.41114871     -0.05331154
C       0.06889687      1.42842460     -0.16365206
C      -0.60089559      0.21632733     -0.21741869
H      -2.86135724      1.53637516      0.87110054
H      -3.92284800      0.11843869      0.71461941
H      -2.52387656      0.04634432      1.77633406
H      -2.44237473      0.27487531     -1.30055954
H       1.98123657     -1.99883293     -0.02240397
H       2.00063736      2.35886241     -0.00926353
H      -0.46728065      2.37301262     -0.20641028
