49
COc1cc2ncnc(N3CCN(C(=O)Nc4ccsc4)CC3)c2cc1OC
C      -7.33063390     -0.98892087     -0.73513262
O      -6.51652611     -0.04991608     -0.04675163
C      -5.17095922     -0.30969156      0.03565111
C      -4.54885983     -1.44318932     -0.50100418
C      -3.18049271     -1.65548413     -0.38956863
N      -2.66449731     -2.76986634     -0.91653082
C      -1.34661659     -2.94620672     -0.77852515
N      -0.49283149     -2.10961671     -0.18019995
C      -1.01818432     -0.98060602      0.33300399
N      -0.13471067     -0.03803037      0.92361808
C       0.22769670      0.99636605     -0.08432100
C       1.61800885      1.59827491      0.17931074
N       2.66720948      0.57350268      0.17281411
C       3.95446782      0.94839734     -0.19278892
O       4.23741406      2.12743868     -0.39208150
N       4.83750875     -0.10128152     -0.31421800
C       6.19988084      0.01056068     -0.57021608
C       6.99579279      1.19480076     -0.61026454
C       8.32130582      0.93676326     -0.88720361
S       8.61798524     -0.73215052     -1.09367707
C       6.97189647     -1.10847393     -0.81255179
C       2.27584012     -0.74442055      0.69697714
C       1.02354858     -0.67909623      1.58916359
C      -2.39918646     -0.70037650      0.26940123
C      -3.02258102      0.44150713      0.83218676
C      -4.39836593      0.64330558      0.71725139
O      -5.07315898      1.72243744      1.22704716
C      -4.32770274      2.68033033      1.96521641
H      -8.36072091     -0.62059120     -0.70912886
H      -7.31417301     -1.96448810     -0.23834582
H      -7.03453163     -1.07334960     -1.78587264
H      -5.12173244     -2.20276717     -1.02356153
H      -0.92975893     -3.85600915     -1.19678806
H       0.22984601      0.57325075     -1.09902023
H      -0.51698189      1.79981108     -0.06116036
H       1.83565532      2.36236906     -0.57499212
H       1.64603384      2.08436321      1.16203754
H       4.44886521     -1.02714968     -0.38615772
H       6.62676720      2.19988240     -0.44597933
H       9.12761548      1.65168130     -0.97642971
H       6.65893341     -2.14226790     -0.84329892
H       3.10529905     -1.16537846      1.27510555
H       2.10625951     -1.39144457     -0.17041967
H       1.26006194     -0.06785815      2.47007664
H       0.77685823     -1.67337963      1.98327913
H      -2.39896782      1.14991665      1.36784246
H      -3.86921140      2.22790685      2.85075000
H      -3.57654796      3.16674006      1.33426364
H      -5.02281743      3.45240480      2.30894212
