28
CSc1nnc(C(C)(C)C)c(=O)n1N
C       3.91667304      1.45138554     -2.32725642
S       3.68047603     -0.23377121     -1.72298541
C       2.05888971     -0.11313333     -1.05018141
N       1.31818096      0.90325318     -1.35091857
N       0.03290762      1.02321825     -0.82243131
C      -0.46284706      0.07688376     -0.08279452
C      -1.88162550      0.22070872      0.50671046
C      -2.46211737      1.61071152      0.16498796
C      -2.81404125     -0.83792258     -0.09975499
C      -1.84112925      0.09880941      2.03745716
C       0.33365832     -1.18289908      0.21195415
O      -0.17662476     -2.14124760      0.77980941
N       1.63755213     -1.15329544     -0.24476527
N       2.47977898     -2.27591655      0.07421476
H       4.92857191      1.54697419     -2.73049709
H       3.20759674      1.68073250     -3.12739332
H       3.80173633      2.17414975     -1.51473011
H      -1.83467431      2.41473287      0.56731126
H      -2.53637675      1.75847101     -0.91881146
H      -3.46772037      1.73594285      0.58293676
H      -3.85236693     -0.67542070      0.21133949
H      -2.78200083     -0.80761154     -1.19497897
H      -2.54460312     -1.85347778      0.20451090
H      -2.81620149      0.33450641      2.47916498
H      -1.57822111     -0.90984807      2.36914467
H      -1.10247205      0.78595130      2.46598652
H       2.89451290     -2.60294016     -0.80114670
H       1.86248748     -3.02894726      0.39826000
