35
O=C(OCC(=O)N1CCCCC1)c1ccccc1
O       1.56970202     -1.07120995     -1.33913529
C       2.10378828     -0.17254839     -0.70689482
O       1.51282666      0.99052346     -0.33338959
C       0.11255653      1.04565319     -0.61411881
C      -0.72731366      0.26987155      0.41275954
O      -0.20360807     -0.20901395      1.42241562
N      -2.10523548      0.17337454      0.17636939
C      -2.70035292      0.44813214     -1.13236942
C      -4.17922237      0.81282153     -1.04091736
C      -4.95954465     -0.20898509     -0.22420559
C      -4.32798362     -0.36619783      1.15305766
C      -2.85275497     -0.73585112      1.04597374
C       3.52727984     -0.20151461     -0.27556986
C       4.33407585     -1.25617181     -0.72470367
C       5.67673947     -1.32592245     -0.34768908
C       6.21945579     -0.34524840      0.48154040
C       5.42220659      0.70440349      0.93724306
C       4.07846769      0.77796844      0.56183344
H      -0.07791699      0.68781959     -1.63132087
H      -0.18237760      2.09885551     -0.56069797
H      -2.17477767      1.26914127     -1.62690375
H      -2.56249493     -0.44984854     -1.74648577
H      -4.60488396      0.89206188     -2.04733633
H      -4.27933852      1.79920942     -0.57056063
H      -4.96620116     -1.17465221     -0.74387479
H      -6.00192467      0.11234993     -0.12224750
H      -4.42712105      0.57683040      1.70512892
H      -4.86270821     -1.13263966      1.72479360
H      -2.74170408     -1.74509058      0.63039116
H      -2.41534697     -0.74923935      2.05024812
H       3.91800058     -2.02873021     -1.36854765
H       6.29687973     -2.14705828     -0.69852342
H       7.26424547     -0.40167630      0.77739232
H       5.84520899      1.46435050      1.58973296
H       3.47137806      1.59823186      0.93661477
