14
OC/C=C\CO
O      -2.50473312      0.57730002     -0.18757446
C      -1.48925621     -0.27207057     -0.69643183
C      -0.65756766     -0.74289307      0.45089757
C       0.66343918     -0.58377333      0.63769277
C       1.64365837      0.10529972     -0.25342606
O       2.25449225      1.15056610      0.48539793
H      -2.06296670      1.27237112      0.32848585
H      -0.92591935      0.27892333     -1.45217288
H      -1.96857552     -1.12538232     -1.18530104
H      -1.21242785     -1.29173173      1.21190654
H       1.10105485     -1.01306541      1.53904123
H       1.19618793      0.53453977     -1.15209740
H       2.42336060     -0.59635862     -0.56426588
H       1.53925324      1.70627498      0.83784765
