28
CC1(C)CC(=O)CC(C)(C)N1[O]
C       1.75586873     -0.80577125      1.03632950
C       1.24281469     -0.25565441     -0.31879277
C       2.25444243     -0.70648425     -1.41308229
C       1.33248995      1.28231319     -0.28656945
C       0.17622668      1.87075643      0.46851411
O       0.33569612      2.75831507      1.31197090
C      -1.19147613      1.44287638      0.02167082
C      -1.30489883     -0.09357991     -0.00765219
C      -2.59747584     -0.39782349     -0.82054237
C      -1.54271809     -0.59593069      1.43916970
N      -0.13000990     -0.65421198     -0.72377930
O      -0.22670798     -2.08632149     -0.76958346
H       1.23997870     -0.36893077      1.89268139
H       2.81878268     -0.56680542      1.16845681
H       1.67192123     -1.89534405      1.10396331
H       2.37586389     -1.79520293     -1.44248878
H       3.24763783     -0.27880756     -1.22903422
H       1.93813050     -0.37485458     -2.40959233
H       1.30102758      1.70880776     -1.29754842
H       2.26759335      1.61595729      0.17922957
H      -1.35026525      1.87747020     -0.97375728
H      -1.93846440      1.88352868      0.69289166
H      -2.85736032     -1.46228758     -0.80339850
H      -2.49039910     -0.09310854     -1.86875476
H      -3.45619264      0.14765003     -0.41031993
H      -2.50456722     -0.22816545      1.81856826
H      -0.78621457     -0.24002977      2.14013215
H      -1.58172410     -1.68836091      1.50131788
