51
CCCCCCCCC(CO)CCCCCC
C      -6.40038401     -2.22582149      0.98473400
C      -6.78405189     -0.80303619      0.60858022
C      -5.86366037      0.25867628      1.21456895
C      -4.42875109      0.19140556      0.68471810
C      -3.58251117      1.34164526      1.23737751
C      -2.10663131      1.25719678      0.83474792
C      -1.88014196      1.41659556     -0.67029042
C      -0.40129130      1.56193551     -1.05396403
C       0.54443076      0.42612804     -0.59658883
C       0.13080565     -0.92731568     -1.19743431
O       0.78560000     -2.00796380     -0.54522252
C       1.99409184      0.82594434     -0.97530452
C       3.08229243     -0.10766426     -0.43843381
C       4.47773543      0.48322131     -0.65968672
C       5.56792638     -0.45415679     -0.13744205
C       6.96060722      0.13603777     -0.35711256
C       8.04723760     -0.79279644      0.16057219
H      -7.14835162     -2.92908993      0.60457390
H      -5.43420498     -2.50765522      0.55624181
H      -6.34591221     -2.34418135      2.07149074
H      -7.80680087     -0.61487808      0.95652804
H      -6.79824296     -0.70566514     -0.48319607
H      -5.86012795      0.16103841      2.30705425
H      -6.28374178      1.24629700      0.98695272
H      -4.44881726      0.23277586     -0.40988447
H      -3.96835436     -0.76135133      0.96877148
H      -3.63853245      1.33316788      2.33307332
H      -3.99947432      2.30099407      0.90761358
H      -1.69773930      0.30047294      1.17909146
H      -1.56128450      2.04724859      1.36545998
H      -2.40683518      2.31414086     -1.01870692
H      -2.32274113      0.57608389     -1.21386784
H      -0.34027290      1.66454564     -2.14535263
H      -0.04030340      2.51180648     -0.63777100
H       0.51071223      0.35334869      0.49753338
H       0.37360357     -0.97361508     -2.26402808
H      -0.94151065     -1.10955132     -1.09329640
H       0.55251023     -1.96491482      0.39779787
H       2.08406651      0.89309897     -2.06725221
H       2.18604116      1.83455918     -0.58594059
H       3.03006333     -1.07584063     -0.94700650
H       2.92513924     -0.28383045      0.63218869
H       4.63260641      0.66769077     -1.72975399
H       4.55244713      1.45153868     -0.15001803
H       5.49496479     -1.42277283     -0.64687374
H       5.41176784     -0.63927882      0.93232742
H       7.04042304      1.10263285      0.15379313
H       7.12323445      0.31928056     -1.42560542
H       7.93219534     -0.97098824      1.23451335
H       9.03464717     -0.35123361     -0.00662633
H       8.01552117     -1.75867028     -0.35364399
