53
CCCCSC(=Nc1cccnc1)SCc1ccc(C(C)(C)C)cc1
C       5.88269099     -4.30561453     -0.81118504
C       5.53811903     -2.82495234     -0.79438383
C       4.02674685     -2.60106357     -0.87231147
C       3.69601972     -1.11004474     -0.86485230
S       1.90113467     -0.84950354     -0.98423194
C       1.56415685     -0.46353084      0.69049669
N       1.69789824      0.68988494      1.26502439
C       2.10659749      1.81560944      0.53612692
C       1.23883404      2.48964522     -0.32312309
C       1.67982074      3.61930828     -1.01003404
C       2.98055926      4.05013101     -0.80201951
N       3.84717919      3.44337856      0.03732518
C       3.38301534      2.35024303      0.69219717
S       1.02291253     -1.83305400      1.64007651
C      -0.30078373     -1.04672977      2.59747043
C      -1.45524910     -0.56954900      1.75165072
C      -1.71892980      0.79705590      1.61610940
C      -2.78261404      1.24966238      0.82552717
C      -3.62046089      0.35236090      0.14520557
C      -4.79284769      0.81473374     -0.73786144
C      -6.11602457      0.23945257     -0.18815215
C      -4.95572840      2.35026893     -0.80653855
C      -4.58191123      0.31283911     -2.18307381
C      -3.34850131     -1.02069307      0.29748249
C      -2.28728038     -1.47558002      1.08745648
H       5.41127242     -4.82788838      0.02769421
H       5.54583189     -4.77486298     -1.74115626
H       6.96561387     -4.44599732     -0.73295870
H       6.03241454     -2.33071182     -1.63867535
H       5.93386172     -2.37404418      0.12314632
H       3.54745697     -3.10173707     -0.02281848
H       3.64049135     -3.06722638     -1.78763581
H       4.09929009     -0.63312659      0.03452405
H       4.15855614     -0.62171027     -1.72912611
H       0.22328540      2.13144825     -0.46537980
H       1.02296643      4.14887103     -1.69093028
H       3.36952929      4.92440616     -1.31671145
H       4.09092498      1.89218571      1.37700634
H       0.11329237     -0.23001020      3.19925070
H      -0.67988548     -1.78290090      3.31597266
H      -1.09029862      1.52942619      2.12064468
H      -2.93074163      2.32431455      0.76013770
H      -6.13068825     -0.85619641     -0.20622851
H      -6.97246651      0.58109178     -0.78165697
H      -6.28180819      0.55394148      0.84918254
H      -4.06377401      2.83234072     -1.22367596
H      -5.14540451      2.78044173      0.18375990
H      -5.80199496      2.62949803     -1.44585588
H      -4.57818009     -0.78039284     -2.24517035
H      -3.62796102      0.66843651     -2.58935288
H      -5.37941353      0.66764487     -2.84536431
H      -3.96372356     -1.76483694     -0.20416766
H      -2.11380088     -2.54666331      1.17277924
