21
O=C(O)c1cccc(C(=O)O)c1C(=O)O
O       1.98392109     -2.04077130     -1.28673126
C       2.19024212     -0.99783109     -0.69943378
O       3.41494645     -0.64915803     -0.26875845
C       1.19110308      0.03982964     -0.37454703
C       1.52862995      1.39080452     -0.55652542
C       0.57463810      2.38654770     -0.34968887
C      -0.71589806      2.03826043      0.04790063
C      -1.05456327      0.69186321      0.25796343
C      -2.42754557      0.41979739      0.72487347
O      -3.42267406      1.03214673      0.38714071
O      -2.46148189     -0.52146912      1.67988038
C      -0.10297371     -0.31178134      0.03186705
C      -0.43246457     -1.72628890      0.23254989
O       0.09172506     -2.47587192      1.03171632
O      -1.37455489     -2.11575470     -0.64191147
H       3.97547357     -1.42152346     -0.49603741
H       2.53005708      1.66869727     -0.88093468
H       0.83465281      3.43200859     -0.50263825
H      -1.45749984      2.82017877      0.20837671
H      -3.40557928     -0.57994018      1.93791075
H      -1.46015414     -3.07974420     -0.48297273
