19
O=C(NC(CO)C(=O)O)C(Cl)Cl
O       0.53019033      1.22649893     -1.94264087
C       1.02274680      0.28288587     -1.31878489
N       0.45918789     -0.11448795     -0.12642334
C      -0.93389939      0.20651063      0.24678797
C      -1.34792673     -0.69927535      1.41872755
O      -0.97929076     -2.05241592      1.12395297
C      -1.23332946      1.66276554      0.64466434
O      -2.07773280      1.97303222      1.47728965
O      -0.57983865      2.60771572     -0.06485716
C       2.31380144     -0.41481701     -1.75401207
Cl      3.65262831      0.20474848     -0.77173795
Cl      2.14780254     -2.17269532     -1.55971150
H       0.73459043     -1.04860802      0.18039459
H      -1.55021133     -0.02876530     -0.62967451
H      -0.83602575     -0.40878414      2.34301667
H      -2.42940965     -0.65983917      1.58662671
H      -1.32274767     -2.59985801      1.85425280
H      -0.07995843      2.23723583     -0.83033023
H       2.50942287     -0.20184703     -2.80850517
