14
C/C=C(\C)C=O
C       1.99212403      0.00390505      0.22436912
C       0.67556895     -0.69343504      0.36373016
C      -0.54834648     -0.17228666      0.15853497
C      -0.89157585      1.22438264     -0.25697544
C      -1.71291143     -1.08202311      0.36565264
O      -2.87244218     -0.71874956      0.20859770
H       1.90678811      1.04887725     -0.07866082
H       2.52578454     -0.02535865      1.17961950
H       2.60367328     -0.51252526     -0.52226364
H       0.77037879     -1.73605553      0.66652397
H      -0.01482186      1.85972695     -0.39872102
H      -1.44161158      1.21461582     -1.20409263
H      -1.51969162      1.70299631      0.50201482
H      -1.47291671     -2.11407020      0.67206314
