34
CC1=C2CC(C=O)C(C1)C(C(C)C)C2
C       4.18354827     -0.72055427      0.00000000
C       2.73645691     -0.32567882      0.00000000
C       1.67093907     -1.38145897      0.00000000
C       0.22384772     -0.98658352      0.00000000
C      -0.15772579      0.46407208      0.00000000
C      -1.52008312     -0.16360817      0.00000000
O      -2.49890341      0.97301439      0.00000000
C       0.90779206      1.51985223      0.00000000
C       2.35488341      1.12497678      0.00000000
C       1.06805926      0.71220455      0.00000000
C      -1.52008315     -0.16360824      0.00000000
C      -2.88244047     -0.79128851      0.00000000
C      -2.14776343      1.19874908      0.00000000
C       1.41307894     -0.59948168      0.00000000
H       5.63063962     -1.11542972      0.00000000
H       3.78867282     -2.16764562      0.00000000
H       4.75187386      0.66761215      0.00000000
H       0.26935542     -2.48589304      0.00000000
H      -1.24478160     -1.29175223      0.00000000
H      -0.68876818      1.86692417      0.00000000
H      -1.65767475     -1.65728436      0.00000000
H       0.52621855      2.97050782      0.00000000
H       2.49247503      2.61865296      0.00000000
H       3.82351272      1.43014548      0.00000000
H      -1.01244110      1.69673655      0.00000000
H      -1.42243936     -1.66042676      0.00000000
H      -4.24479779     -1.41896879      0.00000000
H      -3.82112310      0.37870077      0.00000000
H      -2.42550693     -2.21999833      0.00000000
H      -2.77544370      2.56110640      0.00000000
H      -3.62151758      0.91937710      0.00000000
H      -0.97777414      2.13743171      0.00000000
H      -0.09479114     -2.45234932      0.00000000
H      -1.12729492     -1.63805389      0.00000000
