24
C=CCCCC(C)C
C       4.06377361      0.83306512     -0.24206619
C       3.14596707     -0.12639744     -0.41425382
C       1.97857670     -0.34934374      0.50386148
C       0.64883938     -0.15716607     -0.23040966
C      -0.53950148     -0.39342166      0.70741506
C      -1.90396996     -0.33751308     -0.00437296
C      -3.01490433     -0.73101523      0.97247723
C      -2.20034547      1.04251907     -0.59308606
H       4.01419357      1.52846807      0.59002808
H       4.88986110      0.94238785     -0.93805662
H       3.24188241     -0.80200805     -1.26201896
H       2.02659208      0.33045175      1.36338599
H       2.04065161     -1.36962188      0.90089799
H       0.58953397     -0.85078407     -1.07850368
H       0.60804027      0.85904191     -0.63941981
H      -0.51416895      0.34414888      1.51979616
H      -0.42616228     -1.37983251      1.17557292
H      -1.90369067     -1.06749340     -0.82374539
H      -3.06842452     -0.03377759      1.81560861
H      -2.84342837     -1.73570498      1.37319936
H      -3.98958184     -0.73462000      0.47300376
H      -1.49468837      1.29620007     -1.38975965
H      -2.14465662      1.82192855      0.17433458
H      -3.20438891      1.07048842     -1.03029612
