23
Cn1nc(S(N)(=O)=O)sc1=NS(C)(=O)=O
C      -0.09378040     -1.73258417     -1.14766636
N       0.29166736     -0.55125779     -0.39752960
N       1.64091176     -0.25882902     -0.42332296
C       1.85103663      0.85296207      0.22228386
S       3.49068162      1.51630427      0.38477895
N       4.58120367      0.48903790     -0.40438822
O       3.84815745      1.44690861      1.78517197
O       3.53085695      2.75731134     -0.35820683
S       0.44700950      1.64857322      0.90831528
C      -0.55382419      0.33376840      0.24893407
N      -1.79902872      0.47357100      0.50044785
S      -2.89648627     -0.59171184      0.02540328
C      -4.37550830      0.16521561      0.64775545
O      -2.70906139     -1.83297486      0.74836049
O      -2.98349255     -0.58610140     -1.42065583
H      -0.69510327     -1.46091834     -2.01848658
H      -0.63654883     -2.44132418     -0.51937366
H       0.78887932     -2.26321040     -1.52444396
H       5.23883892      0.10548755      0.27647635
H       5.04690372      1.00171567     -1.15498243
H      -4.49391810      1.14658587      0.18428194
H      -5.22128099     -0.47449974      0.38680082
H      -4.29811389      0.25597022      1.73296970
