22
OCc1cccc2ccccc12
O      -2.64505152     -1.75993992     -0.20212625
C      -2.20075732     -0.99852159      0.91356924
C      -1.22018570      0.07104482      0.49223741
C      -1.66437122      1.40487308      0.47015473
C      -0.81035540      2.43289858      0.08640081
C       0.49892215      2.14315054     -0.28656547
C       0.97230298      0.82310844     -0.28745361
C       2.29450230      0.54946002     -0.67528096
C       2.78265406     -0.75581063     -0.69120743
C       1.95323627     -1.80545126     -0.32061064
C       0.63644529     -1.54936734      0.06922395
C       0.11289404     -0.23637367      0.10033341
H      -2.28533399     -1.34424416     -1.00512039
H      -1.75373089     -1.67026071      1.65367274
H      -3.08414502     -0.55721006      1.38765662
H      -2.68593505      1.64959249      0.75543792
H      -1.16356831      3.46080624      0.07717649
H       1.15138605      2.96194168     -0.58276318
H       2.95902634      1.35832511     -0.97197061
H       3.80777632     -0.95040692     -0.99468258
H       2.32585729     -2.82645930     -0.33397074
H       0.01843132     -2.40115542      0.34588854
