35
c1ccc(CCOC2CCCCC2)cc1
C       4.35054581      1.11765538      1.15720857
C       3.22808286      1.82412083      0.73026389
C       2.42130700      1.30685823     -0.28407694
C       2.72897732      0.07729063     -0.88218740
C       1.84622986     -0.48638211     -1.97328787
C       0.53512562     -1.05828031     -1.42996676
O      -0.38174413      0.00789637     -1.16924583
C      -1.58050584     -0.42055613     -0.51865129
C      -1.35960118     -0.52305404      0.99486996
C      -2.65906593     -0.81385060      1.73959161
C      -3.74052054      0.21011361      1.40849193
C      -3.96435105      0.32365265     -0.09634893
C      -2.66239114      0.61684311     -0.83327397
C       3.85886276     -0.62619259     -0.44306235
C       4.66576707     -0.10685982      0.57115004
H       4.97860630      1.52104581      1.94676265
H       2.97790633      2.77778970      1.18703691
H       1.54315306      1.86438801     -0.60495239
H       1.64842419      0.30252390     -2.70948239
H       2.39147707     -1.28061331     -2.49767441
H       0.71475478     -1.65282118     -0.52799893
H       0.08628229     -1.70588363     -2.19183637
H      -1.89692332     -1.39147784     -0.92232063
H      -0.62885103     -1.30669473      1.22301873
H      -0.91676812      0.41068055      1.36557056
H      -2.47252768     -0.81618703      2.81941054
H      -3.01355033     -1.81751374      1.47435149
H      -4.67815388     -0.07041351      1.90131900
H      -3.44947702      1.18927911      1.80844837
H      -4.69199776      1.11666998     -0.30214617
H      -4.39512440     -0.61186756     -0.47376310
H      -2.84255949      0.64378211     -1.91491264
H      -2.30216852      1.61985825     -0.56869732
H       4.11984513     -1.58347267     -0.88778898
H       5.54093393     -0.65832742      0.90418044
