44
CCNC1CN(CCCOC)S(=O)(=O)c2sc(S(N)(=O)=O)cc21
C      -0.27271134      2.38243107      2.92953845
C      -0.54188027      0.92013879      2.60745006
N      -0.96889662      0.79744397      1.21668602
C      -1.25591529     -0.59044566      0.82742504
C       0.05580975     -1.41884119      0.56211323
N       0.89410371     -0.75598320     -0.50907729
C       2.32415767     -1.14824195     -0.48758747
C       3.07652621     -0.25749133      0.49652796
C       4.56884677     -0.57193569      0.49370033
O       5.24885330      0.14116338      1.52529611
C       5.53240374      1.49157649      1.18155082
S       0.15843342     -0.87763876     -2.06335702
O       0.64433583      0.20616652     -2.88302438
O       0.21566599     -2.26569102     -2.46458943
C      -1.54055312     -0.56312340     -1.68991442
S      -2.65924418     -0.39465013     -2.94627329
C      -3.94712270     -0.17649564     -1.83355330
S      -5.55122021      0.08694619     -2.53536422
N      -5.84166953     -1.11222525     -3.67512228
O      -6.49263309     -0.14514715     -1.46467705
O      -5.48686822      1.33336922     -3.25972887
C      -3.50773735     -0.24239855     -0.52160929
C      -2.10023103     -0.47511955     -0.42846422
H      -1.16903511      2.99338288      2.77758617
H       0.03356864      2.48790057      3.97525532
H       0.52897054      2.78585522      2.30133111
H      -1.32476787      0.54734391      3.27771922
H       0.37055645      0.34522805      2.79557570
H      -0.23122129      1.15491470      0.60304146
H      -1.85267425     -1.09818703      1.59562417
H      -0.18837986     -2.44447633      0.25759299
H       0.63472985     -1.49564935      1.48829388
H       2.76531008     -1.02112817     -1.48296527
H       2.42208631     -2.20536499     -0.21434918
H       2.91208338      0.79629078      0.24237146
H       2.68272822     -0.37789565      1.51274428
H       5.02523590     -0.36677160     -0.48183721
H       4.71540296     -1.63737877      0.70264464
H       6.11083927      1.93641039      1.99595356
H       6.12992557      1.53940467      0.26626370
H       4.61050920      2.06649434      1.06241757
H      -6.73770933     -1.55664378     -3.47101248
H      -5.81797137     -0.69761198     -4.60825096
H      -4.17264072     -0.11592502      0.32605438
