32
CO[SiH](CC1CCCCC1)OC
C      -3.68408523      1.81969915      0.87680654
O      -3.24227694      1.56025035     -0.44607008
Si     -1.99445373      0.47916221     -0.67415786
C      -0.37004449      1.10876889      0.04630462
C       0.91514621      0.33200312     -0.31376438
C       2.14741759      1.20135782      0.00178045
C       3.45522072      0.47405593     -0.29895855
C       3.53749929     -0.85829628      0.43621780
C       2.32776019     -1.73471663      0.13453727
C       1.01539692     -1.01171282      0.43275278
O      -2.43738116     -0.99678561     -0.04007923
C      -3.44271630     -1.73914202     -0.71189282
H      -4.50183256      2.54537619      0.82484053
H      -2.88524179      2.25779900      1.48563184
H      -4.07091342      0.91245277      1.35449126
H      -1.81356152      0.30789703     -2.13433573
H      -0.47094270      1.17237443      1.13658552
H      -0.26843202      2.14048950     -0.31350884
H       0.91967113      0.12686733     -1.39351037
H       2.11178839      2.12637237     -0.58627808
H       2.13290943      1.49632341      1.05900280
H       4.30269708      1.10639906     -0.01119836
H       3.53718173      0.30213060     -1.37924799
H       4.45528333     -1.38325306      0.14846070
H       3.59763424     -0.67713201      1.51642724
H       2.34677741     -2.03364533     -0.92079402
H       2.38325090     -2.65473903      0.72739484
H       0.93518977     -0.84300727      1.51427246
H       0.18809639     -1.67154417      0.15180501
H      -4.39338321     -1.19424289     -0.73453951
H      -3.60277356     -2.67043586     -0.15957452
H      -3.13088207     -2.00112616     -1.72940133
