36
Cc1ccc(N/N=C2\C(=O)C=Cc3ccccc32)c([N+](=O)[O-])c1
C      -6.07890526      0.93070179      0.00242025
C      -4.65890978      0.45488506      0.07939093
C      -4.36076183     -0.90928239      0.02384395
C      -3.03603608     -1.35788482      0.12599663
C      -1.95929926     -0.46613480      0.28164978
N      -0.66927559     -1.01955877      0.38849857
N       0.41483401     -0.23888729      0.17086984
C       1.57412128     -0.81773634      0.00250213
C       1.76652220     -2.33480546     -0.00635609
O       0.80992660     -3.10043394     -0.05112883
C       3.14339998     -2.86354187      0.02224000
C       4.19739381     -2.04918453     -0.08225271
C       4.04970988     -0.60114717     -0.23120082
C       5.19202944      0.19259094     -0.40579862
C       5.07933482      1.57825038     -0.54054402
C       3.82613805      2.18398730     -0.49937712
C       2.68224118      1.40573858     -0.32450739
C       2.79047624      0.01464574     -0.19283119
C      -2.29074237      0.89215403      0.37925593
N      -1.28274545      1.89777584      0.63146961
O      -0.93164174      2.07036688      1.80877185
O      -0.92913648      2.59484095     -0.33357726
C      -3.61416357      1.36033479      0.27627099
H      -6.68037317      0.26444308     -0.62489871
H      -6.51716702      0.96479985      1.00455086
H      -6.13195514      1.93025335     -0.44175835
H      -5.15748410     -1.64089025     -0.09902985
H      -2.84998403     -2.42964671      0.07657373
H      -0.60547930     -2.02106715      0.16017617
H       3.24771497     -3.93799248      0.11201107
H       5.20231534     -2.46220642     -0.06867907
H       6.18275774     -0.25605669     -0.43786349
H       5.97077162      2.18666897     -0.67479417
H       3.73491938      3.26318920     -0.60000725
H       1.71107850      1.89508942     -0.29077025
H      -3.82162485      2.42574095      0.35888289
