19
Cn1c(=O)[nH]c2[nH]c(=O)[nH]c2c1=O
C       2.93032009     -0.42533933     -0.01212064
N       1.52422424     -0.07587629     -0.00997054
C       1.21584535      1.29072236     -0.04203291
O       2.05713633      2.18620758     -0.07117787
N      -0.12362815      1.60925458     -0.03962219
C      -1.08005968      0.66521641     -0.00835554
N      -2.42969756      0.83383772     -0.00208523
C      -3.03938461     -0.43920551      0.03477517
O      -4.22929079     -0.68455219      0.05024029
N      -1.97007675     -1.35054270      0.04942247
C      -0.80687368     -0.63635698      0.02234091
C       0.58041655     -1.10657145      0.02338328
O       0.82864614     -2.30821597      0.05175432
H       3.41028081      0.02940535      0.86056184
H       3.39644230     -0.01535603     -0.91399246
H       3.09085290     -1.50594881      0.01388461
H      -0.35493651      2.59301534     -0.06263001
H      -2.94891898      1.69665761     -0.01979790
H      -2.05129802     -2.35635171      0.07542239
