31
CC1(C)CC/C(=C\c2ccc(Cl)cc2)C1=O
C      -3.30088086      0.01630908     -1.45558409
C      -2.71498091      0.07844015     -0.04370367
C      -3.80412216      0.36423818      0.98588541
C      -1.92167446     -1.19556089      0.31083826
C      -0.51140784     -0.99918928     -0.24827331
C      -0.27733673      0.46919369     -0.08188554
C       0.85760452      1.16737835      0.05290661
C       2.19846011      0.57969982      0.01737135
C       3.06341844      0.78680792      1.09878292
C       4.35381959      0.25012302      1.08465311
C       4.78462915     -0.48688001     -0.01635520
Cl      6.37263255     -1.14816080     -0.03455181
C       3.93852243     -0.68799258     -1.10489813
C       2.64811002     -0.15142583     -1.08967194
C      -1.61770777      1.12439568      0.00253877
O      -1.78614709      2.33218583      0.07110736
H      -2.52643037     -0.14653608     -2.21331922
H      -3.80520633      0.95511101     -1.71203241
H      -4.03213341     -0.79460094     -1.54234510
H      -4.34466865      1.28650835      0.74452686
H      -3.38129440      0.49433214      1.98867731
H      -4.53123472     -0.45380830      1.02768344
H      -2.38737744     -2.10330639     -0.08824861
H      -1.85802480     -1.31849203      1.40082979
H       0.21058865     -1.61402353      0.29713049
H      -0.47825158     -1.26894478     -1.30943859
H       0.81910585      2.24303216      0.22037937
H       2.73739582      1.36273662      1.96257586
H       5.01444691      0.41282943      1.93198210
H       4.27703375     -1.25415519     -1.96841906
H       2.00311170     -0.30024484     -1.95260378
