19
O=C(Nc1ccccc1)C(Cl)Cl
O       1.83392603      0.71305938      1.78080355
C       2.02927046      0.48695459      0.58700608
N       1.05883169      0.11378957     -0.33626693
C      -0.31902811     -0.08176597     -0.11611899
C      -1.09281293     -0.45993515     -1.22175261
C      -2.46749179     -0.67461570     -1.09182161
C      -3.08239773     -0.51308793      0.14613022
C      -2.32196293     -0.13752208      1.25067252
C      -0.94562479      0.07744665      1.12070428
C       3.43665864      0.60786866      0.00106053
Cl      3.94043454     -0.96302301     -0.66249837
Cl      3.44384694      1.84544455     -1.27571565
H       1.38211936     -0.03655040     -1.28672830
H      -0.63953841     -0.59348160     -2.20062123
H      -3.05659748     -0.96763351     -1.95697992
H      -4.15129550     -0.67902401      0.25169814
H      -2.79702754     -0.00984429      2.22030345
H      -0.39563731      0.36872067      2.00955810
H       4.14432687      0.90319958      0.78056674
