18
O=[N+]([O-])c1cc([N+](=O)[O-])c(Cl)c([N+](=O)[O-])c1
O      -0.74978987      3.52325653      0.38645978
N      -1.40561632      2.47669060      0.45241752
O      -2.61581772      2.40728799      0.69808425
C      -0.68909213      1.21418318      0.22181608
C       0.68243439      1.23435544     -0.05908498
C       1.34431460      0.01367518     -0.27491530
N       2.75761009      0.07349573     -0.56125786
O       3.52369085     -0.08339601      0.39500552
O       3.07374420      0.31964061     -1.72993112
C       0.69331714     -1.22187719     -0.22406641
Cl      1.52989269     -2.70411349     -0.52267152
C      -0.67424577     -1.19351403      0.06218182
N      -1.42167194     -2.42590287      0.13667517
O      -1.39551947     -3.02522580      1.21651855
O      -2.05601034     -2.74826349     -0.87328570
C      -1.38245698     -0.00054234      0.28574944
H       1.23575583      2.17241012     -0.11265062
H      -2.45053928     -0.03216014      0.50295539
