27
O=C(c1cccc(F)c1)N(O)c1ccccc1
O       1.12259306     -2.91597495     -0.75198397
C       0.65900492     -1.83260062     -0.38333630
C       1.59747590     -0.70374649     -0.19158534
C       1.54363817      0.10058511      0.95688738
C       2.46270597      1.13901767      1.12489471
C       3.44274033      1.36092063      0.15784624
C       3.50421059      0.53894386     -0.96355799
F       4.45502250      0.75152556     -1.88229433
C       2.59759207     -0.49735644     -1.14617278
N      -0.68367698     -1.70046861     -0.04868034
O      -1.35989840     -2.95488778      0.00640826
C      -1.55065614     -0.57990534     -0.08923952
C      -1.21887186      0.61916620     -0.73279741
C      -2.10983111      1.69878902     -0.74388476
C      -3.35025303      1.59126087     -0.12167039
C      -3.70652115      0.40075709      0.50311779
C      -2.81578099     -0.67635954      0.51246409
H       0.79648855     -0.07870250      1.72746786
H       2.41927748      1.76778322      2.01121719
H       4.16664546      2.16185843      0.27526513
H       2.67736191     -1.13333015     -2.02297477
H      -0.68793965     -3.55428935     -0.38394581
H      -0.28754179      0.73903987     -1.27558648
H      -1.83702571      2.62052705     -1.25233716
H      -4.04263659      2.42906926     -0.13454709
H      -4.67751160      0.30424438      0.98210445
H      -3.11661192     -1.59586644      1.01077345
