57
CC/C(=C(\c1ccccc1)c1ccc(OCCN(C)C)cc1)c1ccccc1
C      -5.56702860     -0.34335855      0.16747707
C      -4.51406777      0.13519914      1.16082589
C      -3.09122774     -0.09174819      0.66374815
C      -2.25445189      0.88704903      0.21746794
C      -2.74955309      2.28452633      0.12500991
C      -2.36461847      3.22732203      1.08643707
C      -2.81825887      4.54489819      1.00156460
C      -3.65466116      4.92919417     -0.04565805
C      -4.03630134      3.99888917     -1.01138818
C      -3.58312357      2.68118849     -0.92915711
C      -0.85061373      0.58392501     -0.17644461
C      -0.46332047      0.67932303     -1.51691522
C       0.85451405      0.40358700     -1.89095635
C       1.80536221      0.03833935     -0.93555678
O       3.05352531     -0.20822457     -1.43751143
C       4.08246728     -0.52223210     -0.49266807
C       5.38676644     -0.75691151     -1.27243305
N       6.53178332     -1.15157928     -0.42835947
C       7.63057741     -1.62911517     -1.27324433
C       6.99961973     -0.04009333      0.40327210
C       1.42712744     -0.04698027      0.40396850
C       0.10772958      0.22938641      0.78115425
C      -2.66413646     -1.51263660      0.75058021
C      -2.46618903     -2.11971779      1.99822393
C      -2.06605534     -3.45512067      2.07995541
C      -1.86080677     -4.19450069      0.91656379
C      -2.05621377     -3.60105614     -0.32920784
C      -2.45847166     -2.26670628     -0.41247630
H      -6.56882806     -0.10589487      0.54041640
H      -5.44741791      0.13986557     -0.80720006
H      -5.51684773     -1.42707491      0.02000850
H      -4.70084881      1.19108274      1.38307245
H      -4.66721031     -0.37837670      2.11833322
H      -1.70987880      2.93848942      1.90476576
H      -2.51642423      5.27119884      1.75093515
H      -4.00622650      5.95559876     -0.11119187
H      -4.68473226      4.29946652     -1.83015109
H      -3.88120819      1.96462032     -1.69036393
H      -1.18365038      0.96275153     -2.27915582
H       1.14174090      0.47482537     -2.93681633
H       4.20147050      0.31557430      0.20274324
H       3.82234122     -1.43554803      0.05595894
H       5.62365013      0.13203901     -1.87292237
H       5.18009708     -1.55422843     -1.99984524
H       7.98955007     -0.85510829     -1.96186959
H       8.47333085     -1.96177959     -0.65709099
H       7.31517714     -2.49758044     -1.86253830
H       7.86439791     -0.34725579      1.00264121
H       7.29051504      0.83071552     -0.19559943
H       6.23205072      0.27022657      1.11895396
H       2.12771693     -0.33129908      1.18143990
H      -0.17036594      0.15695084      1.82938044
H      -2.61385541     -1.55277417      2.91393768
H      -1.91184721     -3.91666574      3.05135523
H      -1.54558746     -5.23266764      0.98001019
H      -1.89184169     -4.17442473     -1.23716408
H      -2.60564065     -1.81557310     -1.39055306
