64
CCOC(=O)c1nn(-c2ccc(OC)cc2)c2c1CCN(c1ccc(N3CCCCC3=O)cc1)C2=O
C       6.52668897     -5.24724779      1.07796073
C       6.15160502     -4.84527843     -0.33621205
O       5.43046522     -3.60745986     -0.32506544
C       4.08082525     -3.69666975     -0.12970450
O       3.47860651     -4.75238162      0.04223038
C       3.40685093     -2.38693325     -0.13566864
N       4.05852923     -1.23175211     -0.34595709
N       3.13254915     -0.23705545     -0.19857388
C       3.60464765      1.10571664     -0.08509959
C       2.84896043      2.11624871      0.51273328
C       3.36980890      3.41159890      0.62476835
C       4.65022222      3.71660163      0.15995217
O       5.02933208      5.01835478      0.33543812
C       6.31444058      5.38293253     -0.15156077
C       5.41881163      2.70730594     -0.41421201
C       4.90330495      1.40989465     -0.52902597
C       1.85872598     -0.76967034     -0.11168958
C       2.02914431     -2.13360612      0.03538033
C       0.87794611     -3.03761534      0.24209998
C      -0.27173715     -2.23317660      0.87041628
N      -0.53106721     -0.94588477      0.18582992
C      -1.88747140     -0.47084426      0.12467507
C      -2.85388388     -0.90652291      1.03996193
C      -4.18373453     -0.45579801      0.97478564
C      -4.60711699      0.43463619     -0.02012711
N      -5.96488245      0.92070048     -0.07860066
C      -6.80562703      0.73947094      1.10998725
C      -7.99720139      1.68028024      1.18529979
C      -8.77195033      1.60329208     -0.11164291
C      -7.86435516      2.03187819     -1.24378778
C      -6.54422720      1.28228878     -1.30611568
O      -6.03424389      1.09880655     -2.41308885
C      -3.63920063      0.86816978     -0.93185588
C      -2.30789661      0.42474815     -0.86165180
C       0.56283897     -0.12905293     -0.22047712
O       0.43878193      1.01077327     -0.65407346
H       7.13782353     -6.15423814      1.07420361
H       7.08635584     -4.44517178      1.57084905
H       5.63399935     -5.43084281      1.68415723
H       5.58208393     -5.63450230     -0.84052687
H       7.06062253     -4.68027311     -0.92413715
H       1.86628392      1.93812514      0.93541553
H       2.76720499      4.19074466      1.08649157
H       6.38395133      5.23452653     -1.23426577
H       6.45731040      6.44943002      0.04770769
H       7.10466636      4.83736821      0.37446969
H       6.42279131      2.88870401     -0.78254807
H       5.53056898      0.64391417     -0.98325439
H       1.13432910     -3.87676579      0.89615079
H       0.56190778     -3.44405821     -0.72598171
H      -0.03868117     -1.99695916      1.91666278
H      -1.16157409     -2.87103073      0.84164103
H      -2.60101406     -1.57993945      1.85353502
H      -4.87312252     -0.84982581      1.71517129
H      -7.15921855     -0.29922513      1.10514122
H      -6.20571477      0.90482190      2.01224841
H      -8.63834227      1.40447259      2.02976954
H      -7.65453649      2.70820838      1.35753940
H      -9.65130970      2.25472635     -0.06796992
H      -9.12898592      0.57974584     -0.27788629
H      -8.38905616      1.88159152     -2.19450094
H      -7.62870656      3.09992469     -1.16239360
H      -3.88136256      1.58287801     -1.71477503
H      -1.62676473      0.78690151     -1.62767845
