25
O=[N+]([O-])c1ccc(Oc2c(Cl)cc(Cl)cc2Cl)cc1
O      -4.58687020      1.86585470      1.55302689
N      -4.51334183      1.11564741      0.56924880
O      -5.48927865      0.68926173     -0.06427254
C      -3.17615624      0.70336051      0.12399546
C      -3.04317032     -0.15275309     -0.97580688
C      -1.76700813     -0.53950653     -1.39232602
C      -0.63050842     -0.08590948     -0.71385822
O       0.57237425     -0.52659023     -1.22596188
C       1.66189220     -0.53839721     -0.38667489
C       2.64638081      0.44861030     -0.52605645
Cl      2.48929615      1.71653409     -1.68732123
C       3.78054633      0.43358286      0.28690452
C       3.93805110     -0.58198689      1.22718578
Cl      5.33491274     -0.60233879      2.23080652
C       2.98105479     -1.58610379      1.35822495
C       1.84710808     -1.56998860      0.54377950
Cl      0.71113350     -2.85984858      0.71108155
C      -0.76885227      0.78069839      0.37574490
C      -2.04247314      1.17418834      0.80034286
H      -3.91224664     -0.52399505     -1.51500117
H      -1.65722664     -1.20412945     -2.24694634
H       4.53895383      1.20603194      0.18445676
H       3.12219881     -2.38266485      2.08499300
H       0.09510245      1.17293000      0.90408929
H      -2.13187255      1.84751223      1.65080574
