29
CCOC(=O)CCCC(=O)OCC
C       5.22181194      0.40589924      0.21777894
C       3.93558803     -0.14033126     -0.37052642
O       2.90316411      0.83220073     -0.16883958
C       1.68768190      0.46445938     -0.65731725
O       1.43739351     -0.59747742     -1.21071688
C       0.66252045      1.53461148     -0.38309821
C       0.04970212      1.39001229      1.00867319
C      -0.85986259      0.16796027      1.16557597
C      -2.15103777      0.28506275      0.38786152
O      -2.54802595      1.29581837     -0.17427357
O      -2.81750463     -0.90248989      0.43116434
C      -4.05998382     -0.90563677     -0.28177390
C      -4.67332929     -2.28675699     -0.15835759
H       5.49355927      1.35222408     -0.26151268
H       6.04293958     -0.30455143      0.08787411
H       5.09934901      0.61366727      1.28593324
H       3.66614495     -1.07521702      0.13357863
H       4.06720249     -0.32307514     -1.44289688
H       1.15136359      2.51178591     -0.47838896
H      -0.09360898      1.49874595     -1.17417424
H      -0.51841377      2.29967839      1.23847043
H       0.85257728      1.32142094      1.75312372
H      -0.33658441     -0.74146530      0.85362059
H      -1.12884391      0.06401834      2.22314955
H      -3.88149896     -0.67314161     -1.33763643
H      -4.73630399     -0.16041166      0.15168203
H      -4.83869667     -2.54254505      0.89346370
H      -3.99913132     -3.04596053     -0.56844970
H      -5.62817212     -2.33850534     -0.68889574
