99
CCCCCCCCCCCCCCCCC(CO)CCCCCCCCCCCCCC
C     -10.75923129     -4.13336016     -3.11729006
C     -10.75910777     -2.65300615     -2.77078261
C      -9.45453105     -2.17720768     -2.12534018
C      -9.21205442     -2.78915933     -0.74321129
C      -8.02665540     -2.15958017     -0.00329702
C      -6.67693343     -2.44863593     -0.66683208
C      -5.48521124     -2.01499369      0.19471281
C      -5.35896811     -0.49394811      0.32977512
C      -4.10974908     -0.05940483      1.10759358
C      -4.19189732     -0.39047578      2.60000029
C      -2.95291397      0.03490080      3.39685257
C      -3.03876016      1.42685458      4.03193282
C      -2.94540686      2.62255834      3.08259398
C      -1.69840396      2.68244990      2.19396574
C      -0.38715517      2.69090434      2.98408240
C       0.85938216      2.79154939      2.09445407
C       0.98910259      4.06859632      1.23450147
C       0.93781529      5.33998862      2.10016475
O       1.01082554      6.51158427      1.29471255
C       2.29763198      4.05200268      0.40328221
C       2.35745711      2.92172047     -0.62992377
C       3.55411163      3.03537334     -1.58152956
C       4.93458043      3.03181236     -0.91668049
C       5.21866878      1.76195808     -0.11062607
C       6.63743619      1.77766387      0.46618439
C       6.93985397      0.57559512      1.36628670
C       6.84892691     -0.79798397      0.69171312
C       7.82184125     -0.95977390     -0.47861870
C       7.87858350     -2.39005183     -1.02724429
C       6.59765079     -2.80727940     -1.75475273
C       6.63198623     -4.24951583     -2.26955616
C       7.74943965     -4.58149583     -3.26072556
C       7.72296991     -3.72829447     -4.51829014
H     -10.69184042     -4.75504469     -2.22036428
H      -9.92052721     -4.38203212     -3.77389102
H     -11.68592970     -4.39820937     -3.63730063
H     -10.92131235     -2.08015654     -3.69171735
H     -11.60512582     -2.43273483     -2.10913209
H      -9.49750666     -1.08599224     -2.03095209
H      -8.61768353     -2.40552731     -2.79441733
H      -9.04722463     -3.86884453     -0.83174042
H     -10.10930741     -2.65395277     -0.12691190
H      -8.01351674     -2.55663624      1.01855952
H      -8.18633182     -1.07875915      0.08015631
H      -6.59213728     -3.52756520     -0.84899820
H      -6.62086359     -1.95419368     -1.64279431
H      -4.56928297     -2.40727140     -0.26243617
H      -5.57197946     -2.48114770      1.18213730
H      -5.30878783     -0.05389730     -0.67421883
H      -6.24819866     -0.07559157      0.81481544
H      -3.99353303      1.01931489      0.97292122
H      -3.22101348     -0.52876049      0.67002461
H      -4.28799587     -1.47718787      2.70927645
H      -5.09664613      0.04807075      3.03760398
H      -2.84788729     -0.67550110      4.22777181
H      -2.04441803     -0.07474574      2.79634390
H      -2.24064817      1.51113642      4.77863533
H      -3.97621442      1.50549275      4.59741551
H      -2.98385101      3.53832487      3.68587892
H      -3.83763275      2.65685518      2.45001435
H      -1.69712277      1.84367904      1.48917867
H      -1.77074453      3.59442051      1.59061637
H      -0.39656306      3.49819149      3.72405013
H      -0.30230815      1.75839343      3.55452340
H       1.74444342      2.70619619      2.73880773
H       0.86762598      1.90936750      1.44406863
H       0.15868246      4.11087316      0.51910048
H       1.77301277      5.36450473      2.80796649
H       0.00727334      5.40234481      2.67112061
H       0.26302833      6.48450486      0.67341215
H       2.40009143      5.00333454     -0.13257109
H       3.15301318      3.98029272      1.08601424
H       2.38298377      1.94693787     -0.13371413
H       1.44154911      2.93726553     -1.23336962
H       3.45496554      3.95718176     -2.16766749
H       3.50367882      2.20724405     -2.30003968
H       5.04360418      3.91328046     -0.27496990
H       5.69200357      3.13125787     -1.70513289
H       4.50118791      1.67053468      0.71280068
H       5.08672727      0.89052864     -0.76115068
H       7.37158180      1.83492594     -0.34564160
H       6.76827808      2.68912065      1.06345824
H       7.94680504      0.70002976      1.78360302
H       6.25087677      0.58965294      2.22041759
H       5.82002906     -0.98008626      0.36367025
H       7.07102872     -1.56007815      1.44900730
H       8.82814821     -0.68340443     -0.14291896
H       7.55725000     -0.27441346     -1.29085169
H       8.72435043     -2.44416112     -1.72131029
H       8.09133360     -3.09027889     -0.21166262
H       6.40115510     -2.11754326     -2.58307686
H       5.74218472     -2.72188926     -1.07459487
H       5.66496414     -4.46931034     -2.74054139
H       6.71788466     -4.93007156     -1.41307096
H       7.64891370     -5.63429443     -3.55325005
H       8.72786636     -4.49114555     -2.77709687
H       8.47861122     -4.08014939     -5.22700031
H       7.94084703     -2.67954585     -4.29673999
H       6.74687035     -3.78447965     -5.01067621
