52
COCCN(C)c1ccc(Nc2ncc3cc(-c4ccncc4)ccc3n2)cc1
C       7.87989588     -0.71313801      1.58630579
O       7.56033053      0.48348003      0.88514318
C       6.96395393      0.20158825     -0.38868094
C       6.57297068      1.51055785     -1.09449614
N       5.36846508      2.14225442     -0.50878950
C       5.61358278      2.87429620      0.73848147
C       4.10194166      1.59347458     -0.73257257
C       3.01375738      1.83778937      0.11942002
C       1.73477178      1.29635393     -0.10617106
C       1.47329694      0.48863762     -1.20763715
N       0.23168329     -0.08533325     -1.48736594
C      -1.01207176     -0.05609879     -0.86478850
N      -1.22624551      0.63381149      0.26264794
C      -2.46686165      0.59540246      0.78238713
C      -3.51463943     -0.11183045      0.22216089
C      -4.81520390     -0.15687511      0.76973573
C      -5.83031930     -0.89673089      0.14887747
C      -7.18773792     -0.95470831      0.71263675
C      -7.40388060     -1.31638088      2.04871645
C      -8.70154334     -1.35836120      2.53424338
N      -9.78904301     -1.06670165      1.79318484
C      -9.56895176     -0.71884586      0.50842488
C      -8.30979576     -0.65138755     -0.06764826
C      -5.50249539     -1.58130699     -1.02775106
C      -4.20526225     -1.52667974     -1.55779895
C      -3.19564952     -0.79720940     -0.94735295
N      -1.96770970     -0.77139692     -1.48463567
C       2.54017574      0.25007585     -2.07896156
C       3.81630509      0.79473820     -1.85005318
H       6.97522383     -1.29680966      1.78792141
H       8.59566596     -1.31287171      1.01274625
H       8.33921979     -0.44092620      2.54055552
H       6.09687689     -0.45507902     -0.25435991
H       7.70619404     -0.32137125     -1.00330720
H       7.40942578      2.21853066     -1.02349470
H       6.44095359      1.33656748     -2.16710867
H       5.48430987      2.22477326      1.61430846
H       4.94526021      3.74011482      0.82390855
H       6.63323382      3.27790184      0.76896455
H       3.12144777      2.45966351      1.00407592
H       0.95514930      1.53389612      0.61145694
H       0.16371789     -0.64720964     -2.32335662
H      -2.59236127      1.17013286      1.69676660
H      -5.03191877      0.39945624      1.68084146
H      -6.57991207     -1.57659468      2.70497781
H      -8.90465392     -1.63900258      3.56386330
H     -10.46009680     -0.48505756     -0.06762716
H      -8.21179136     -0.35484630     -1.10746301
H      -6.25084354     -2.18083606     -1.54247830
H      -3.98087785     -2.07328337     -2.47112947
H       2.39683057     -0.36532114     -2.96419928
H       4.57522632      0.57546309     -2.59352490
