19
CC(C)(C)OC(N)=O
C      -1.19824570     -0.91861904     -0.77331884
C      -0.50708928     -0.01728709      0.25596448
C      -0.86226963      1.45992041      0.05292445
C      -0.95906823     -0.44175339      1.66168109
O       0.92952678     -0.21940032      0.25362305
C       1.65814777      0.05969398     -0.84609753
N       2.96028639     -0.20828659     -0.60414489
O       1.25524131      0.48751142     -1.91383647
H      -2.28750739     -0.88813638     -0.66193079
H      -0.96597504     -0.61951287     -1.79987412
H      -0.86585223     -1.95726954     -0.66594637
H      -1.93055647      1.63889357      0.21589510
H      -0.62388643      1.80230723     -0.95859652
H      -0.29349216      2.09474495      0.74161814
H      -0.68904141     -1.48578588      1.85913379
H      -2.04108888     -0.33396732      1.79137509
H      -0.45689351      0.15770502      2.43004058
H       3.63624889     -0.04981057     -1.33522591
H       3.24151522     -0.56094758      0.29671566
