41
CC(C)NCC1CCc2cc(CO)c([N+](=O)[O-])cc2N1
C       5.33254805     -0.05872702     -0.30745527
C       4.34214270      0.93946722      0.29437186
C       4.66961863      2.34916730     -0.20658563
N       2.95689593      0.62119756     -0.08465143
C       2.41116266     -0.51660255      0.68173338
C       0.98731282     -0.90702307      0.20163877
C       0.38567854     -1.95403060      1.13925870
C      -0.98740960     -2.37289100      0.63006091
C      -1.84141266     -1.18052175      0.28042742
C      -3.23488082     -1.34508860      0.17282358
C      -4.07486921     -0.27169474     -0.16048907
C      -5.55969219     -0.50237594     -0.23484260
O      -5.94514897     -0.69368558     -1.58500656
C      -3.46509250      0.96852265     -0.41155118
N      -4.25783106      2.13022482     -0.79814697
O      -5.13241899      1.96401708     -1.66186289
O      -4.00013670      3.20653390     -0.24325698
C      -2.07620815      1.14383145     -0.31351303
C      -1.25001299      0.06273012      0.00233002
N       0.12523642      0.28705258      0.16454454
H       5.19264514     -1.06544438      0.09768775
H       5.23153948     -0.11464396     -1.39724795
H       6.36297180      0.23876478     -0.08327988
H       4.44461456      0.94289049      1.38668426
H       3.99611528      3.09134938      0.23658678
H       5.69279087      2.62889244      0.06729041
H       4.58198669      2.41986316     -1.29678975
H       2.36984485      1.42669540      0.14128541
H       2.37721728     -0.24341796      1.74421006
H       3.05382369     -1.39789531      0.58384378
H       1.06442677     -1.31569278     -0.81554171
H       0.28887299     -1.54001370      2.15203211
H       1.03564499     -2.83379342      1.21023390
H      -0.87639003     -2.99313745     -0.26791203
H      -1.48153446     -2.98050820      1.39728816
H      -3.66756071     -2.32864275      0.35637007
H      -6.12705788      0.32410448      0.20680858
H      -5.83934479     -1.40152427      0.32507512
H      -5.92456444      0.18807490     -2.00860074
H      -1.63445339      2.12312818     -0.48626965
H       0.47292940      0.96084712     -0.51671529
