27
CC1=NN(c2ccc(S(=O)(=O)O)cc2)C(=O)C1
C      -4.53594701     -0.80172615      0.77184031
C      -3.33260457     -0.16510432      0.16905430
N      -2.11778800     -0.55488889      0.39597125
N      -1.29672202      0.28056968     -0.34117340
C       0.10489903      0.07434260     -0.28252579
C       1.00325894      0.87358045     -1.00546049
C       2.38427495      0.65355581     -0.93469498
C       2.87765197     -0.37888687     -0.13764181
S       4.62505549     -0.63464465     -0.02476297
O       4.91859401     -1.18232045      1.28253160
O       5.05521463     -1.27978408     -1.24346634
O       5.25333718      0.85166318      0.00399062
C       2.00969034     -1.18495735      0.59604855
C       0.63196695     -0.95638316      0.51776614
C      -1.99598726      1.25375012     -1.07432132
O      -1.59958312      2.13943649     -1.81431782
C      -3.43991426      0.99609825     -0.76223623
H      -4.24442749     -1.63146195      1.42087461
H      -5.18406916     -1.17722373     -0.02418194
H      -5.08245129     -0.05940503      1.35921111
H       0.65647752      1.68327626     -1.64174336
H       3.05944811      1.28543317     -1.50824608
H       5.77165601      0.93198670      0.83266772
H       2.38762440     -1.98757733      1.22551431
H      -0.03116220     -1.59810496      1.09476975
H      -3.98981856      0.71598269     -1.66246261
H      -3.88867458      1.85279353     -0.25629742
