24
O=[N+]([O-])OC1COC2C(O[N+](=O)[O-])COC12
O      -4.55072124      1.75888287     -0.46557598
N      -3.90067237      0.72804746     -0.31138171
O      -4.27710502     -0.41545414     -0.05356745
O      -2.50752227      0.93581243     -0.44852003
C      -1.74159167     -0.26468642     -0.32013993
C      -1.50159946     -0.60822494      1.14569832
O      -0.37261189      0.17245794      1.58727682
C       0.31876725      0.67259576      0.42865194
C       1.74380924      0.15750817      0.37417879
O       2.46748353      0.99914343     -0.52708400
N       3.86881692      0.81144730     -0.46482908
O       4.28699907     -0.06267792      0.29464133
O       4.48185567      1.56921557     -1.21244646
C       1.53969065     -1.23263730     -0.21753702
O       0.39306621     -1.16100351     -1.08885259
C      -0.33360618      0.04453658     -0.79023047
H      -2.17886622     -1.09444282     -0.88781459
H      -1.23319766     -1.66325909      1.26472960
H      -2.34626752     -0.38169509      1.80129360
H       0.24039829      1.76465309      0.42902990
H       2.19871332      0.13525161      1.37143794
H       1.30825311     -1.96393041      0.56409739
H       2.38721326     -1.59712247     -0.80357533
H      -0.29130501      0.69558189     -1.66948098
