28
CC12CCC(CC1=O)C(C)(C)O2
C      -2.32194289     -1.51971354     -0.53790126
C      -1.23348092     -0.50144179     -0.23378704
C      -1.41712146      0.13167378      1.15676625
C      -0.30739813      1.16535205      1.40525882
C       0.68005656      1.14573993      0.21886833
C      -0.10088724      1.64765765     -1.01417253
C      -1.21119107      0.64680893     -1.25879506
O      -2.01627515      0.78219411     -2.17590511
C       1.16602697     -0.31619217     -0.01992540
C       1.90430019     -0.88842258      1.19977222
C       2.10227227     -0.42635097     -1.23277160
O       0.03633838     -1.17680257     -0.27781345
H      -2.30116585     -2.34171868      0.18620134
H      -3.31811733     -1.06546199     -0.52265434
H      -2.16894630     -1.96834153     -1.52624664
H      -2.39708130      0.61565780      1.24587616
H      -1.35997880     -0.64110195      1.93316933
H       0.20189677      0.95742685      2.35240708
H      -0.74785672      2.16407473      1.51637859
H       1.52413222      1.81444631      0.42198648
H      -0.54489254      2.62992564     -0.82183353
H       0.53344029      1.71618969     -1.90124161
H       2.74475821     -0.25152322      1.49371020
H       1.23893393     -1.01480951      2.05948296
H       2.29165028     -1.89149977      0.98451731
H       2.95348021      0.25634086     -1.14493115
H       2.48957626     -1.44732625     -1.33377571
H       1.57947316     -0.22278180     -2.17264064
