21
Nc1nc(=O)[nH]n1-c1ccccc1
N       1.68934495      2.14116415     -0.58845138
C       1.96424764      0.82885068     -0.38737870
N       3.02068781      0.22926861     -0.85618920
C       2.87850559     -1.07568614     -0.43562278
O       3.54330858     -2.03041775     -0.80863259
N       1.80380166     -1.17763308      0.42828932
N       1.13897977      0.05907834      0.40000108
C      -0.27261856     -0.04989101      0.30395985
C      -1.00841098      0.51664670     -0.74724850
C      -2.39966722      0.38675206     -0.80428911
C      -3.07931454     -0.30856197      0.19248246
C      -2.37041923     -0.87432954      1.24804888
C      -0.98035801     -0.74500462      1.30256955
H       2.49065294      2.64377089     -0.95717482
H       1.27699427      2.60456869      0.21311435
H       1.26830657     -2.03145467      0.35491475
H      -0.50871796      1.05316853     -1.55064403
H      -2.95046663      0.82775002     -1.63171466
H      -4.16102536     -0.40767021      0.14646736
H      -2.89810915     -1.41212390      2.03178040
H      -0.44572211     -1.17824577      2.14571775
