34
CCCCCCOC(=O)c1ccc(O)cc1
C      -5.49340778      0.51080633      0.67983737
C      -4.21771875      0.55244137     -0.14777928
C      -3.75389206     -0.85433658     -0.52747005
C      -2.53621496     -0.86374247     -1.45586146
C      -1.26904885     -0.31605071     -0.80099846
C      -0.06123285     -0.44885098     -1.72509597
O       1.09856068      0.12580269     -1.10226737
C       1.80315613     -0.70142472     -0.29094120
O       1.53697158     -1.86812442     -0.04897611
C       2.97513880      0.00834502      0.29114215
C       3.81713114     -0.70553143      1.15785704
C       4.93103498     -0.08735375      1.73257031
C       5.19907631      1.24535544      1.43771856
O       6.27346497      1.88930577      1.97464338
C       4.37502786      1.96711364      0.58125654
C       3.26099557      1.35094200      0.00570916
H      -5.80675271      1.52562996      0.94424314
H      -5.34088360     -0.05043215      1.60725693
H      -6.30833024      0.03866373      0.12187865
H      -3.44269862      1.06641823      0.43052651
H      -4.39627656      1.14350547     -1.05337154
H      -4.57432435     -1.37660168     -1.03537381
H      -3.52916102     -1.42822987      0.37985115
H      -2.76165243     -0.29129842     -2.36383800
H      -2.35619344     -1.89883743     -1.77195328
H      -1.39364650      0.73994461     -0.53520861
H      -1.07436552     -0.84339781      0.14045909
H       0.12112739     -1.49141978     -2.01214365
H      -0.23339380      0.11184567     -2.65033795
H       3.60644365     -1.74858099      1.38823619
H       5.56919504     -0.65786651      2.40021888
H       6.75527110      1.27024410      2.54765033
H       4.59890031      3.00766066      0.36171037
H       2.62769854      1.93033295     -0.66114903
