31
CN(CC(=O)O)C(=O)COC(=O)c1ccccc1
C       2.37347949      2.79976616      1.14084591
N       2.36783532      1.38259704      0.81198865
C       3.67277105      0.76677278      0.54106440
C       4.25934893      0.04181620      1.74842454
O       5.37734613      0.26572831      2.19322293
O       3.46105364     -0.92686543      2.25638804
C       1.23470021      0.59051498      0.75089884
O       1.35548274     -0.63969502      0.70996172
C      -0.13846360      1.27256246      0.79141568
O      -1.19667280      0.39978206      0.39434041
C      -1.23861706      0.16331786     -0.94175959
O      -0.51070987      0.68293220     -1.77378423
C      -2.31452012     -0.80834781     -1.27513035
C      -3.08349399     -1.44551509     -0.29159213
C      -4.08221266     -2.35056033     -0.65968281
C      -4.31663483     -2.62408453     -2.00693896
C      -3.55378208     -1.99616891     -2.99049101
C      -2.55455628     -1.09121960     -2.62691276
H       1.40944857      3.13828072      1.52342062
H       3.13151026      2.98236798      1.90857106
H       2.62346464      3.36468142      0.23836635
H       4.37318417      1.54265658      0.21296585
H       3.57819819      0.04026799     -0.27427756
H       2.63407239     -1.04441991      1.72516180
H      -0.33564026      1.56391571      1.82824172
H      -0.14653368      2.17790793      0.17424901
H      -2.91376479     -1.25250730      0.76459766
H      -4.67562465     -2.84505367      0.10569686
H      -5.09329341     -3.33039268     -2.29069174
H      -3.73463695     -2.21233824     -4.04062393
H      -1.96273872     -0.60869985     -3.40253403
