29
CC(C)=CCC[C@@H](C)CC=O
C      -3.23983847     -1.20107593      0.85626038
C      -2.33740523     -0.46882244     -0.10416735
C      -2.24990860     -1.10432498     -1.46416472
C      -1.69586584      0.65148567      0.28194645
C      -0.76048908      1.51616623     -0.51866841
C       0.63135649      1.62604386      0.11988241
C       1.42287390      0.30307164      0.21548769
C       1.74400573     -0.26432792     -1.17180094
C       2.71787033      0.54244107      1.00952774
C       3.37362946     -0.75751665      1.40080813
O       4.55310677     -1.01062158      1.17628759
H      -4.26094124     -1.23953685      0.46284962
H      -2.88385437     -2.22610496      1.00313729
H      -3.28055141     -0.72013945      1.83925790
H      -3.25067885     -1.19942616     -1.89900054
H      -1.64484571     -0.53903904     -2.17483091
H      -1.81376165     -2.10546099     -1.38250891
H      -1.86199009      1.01091966      1.29825696
H      -0.67027705      1.19412079     -1.55805598
H      -1.19771252      2.52200182     -0.55913308
H       1.21725134      2.35669088     -0.45313692
H       0.51795898      2.04935685      1.12703682
H       0.81986332     -0.43898239      0.75352274
H       0.83298517     -0.51792173     -1.72035827
H       2.31211560      0.45477492     -1.77161834
H       2.33589751     -1.18242899     -1.09713359
H       2.50241878      1.07394928      1.94346132
H       3.42906327      1.14567137      0.43433790
H       2.73772348     -1.47096396      1.95251700
