16
O=C1OCc2ccc(Br)cc21
O      -2.04204245      2.45332947     -0.19539653
C      -1.73565758      1.28143698     -0.11524233
O      -2.58697401      0.21323713     -0.06446766
C      -1.88005822     -1.04255598      0.02888257
C      -0.46129938     -0.63485271      0.03106226
C       0.68988885     -1.39971205      0.10211538
C       1.92336894     -0.73812865      0.08458157
C       1.98012654      0.66405856     -0.00297251
Br      3.66282655      1.52653675     -0.02436536
C       0.81629718      1.42628962     -0.07410631
C      -0.38521602      0.74078781     -0.05443239
H      -2.17042470     -1.54138770      0.95750522
H      -2.13499059     -1.65507470     -0.84020665
H       0.64694450     -2.48289683      0.16976591
H       2.84129857     -1.32010635      0.13946896
H       0.83591183      2.50903865     -0.14219213
