20
CC(=O)c1ccc(O)c(O)c1O
C      -3.10937809     -0.11039269      0.19576742
C      -1.89961612      0.72096960     -0.13780960
O      -2.00387075      1.88951916     -0.51397468
C      -0.53793856      0.12605859     -0.01352478
C      -0.35243488     -1.20187444      0.41050088
C       0.93660637     -1.74008256      0.52000364
C       2.03566095     -0.95386912      0.20685868
O       3.28876329     -1.48061137      0.31446417
C       1.86412727      0.35763388     -0.21252017
O       2.96931459      1.10820123     -0.51434286
C       0.58862533      0.90337733     -0.32517920
O       0.52637734      2.20915980     -0.74830338
H      -3.07968520     -0.41934678      1.24376136
H      -3.16755264     -0.97779352     -0.46669554
H      -4.01081270      0.49194774      0.04541695
H      -1.19202354     -1.84342161      0.66308520
H       1.08149449     -2.76617120      0.84756667
H       3.88723157     -0.75348250      0.04632365
H       2.60181133      1.97808757     -0.77947286
H      -0.42670007      2.46209088     -0.78192553
