40
CCCN(CCC)C(=O)COC(=O)c1ccccc1
C      -3.76615119      3.18296814     -0.02906335
C      -2.84683600      2.05958081     -0.47896788
C      -2.72610414      0.97359967      0.59012214
N      -1.84269235     -0.11098053      0.15750257
C      -2.46538125     -1.24179310     -0.53431453
C      -2.94631779     -2.30799166      0.44991980
C      -3.57918605     -3.48597465     -0.27243318
C      -0.47675741      0.01198475      0.41834250
O      -0.01764257      0.98836013      1.01778854
C       0.43994922     -1.13236778     -0.03974709
O       1.81719184     -0.87705836      0.24762105
C       2.42592409     -0.05386630     -0.64286457
O       1.93561644      0.35897943     -1.68270004
C       3.81318928      0.25900983     -0.20569663
C       4.30749697     -0.11585051      1.05114547
C       5.61907134      0.20238707      1.41243325
C       6.44063561      0.89613264      0.52429262
C       5.95420780      1.27670177     -0.72567426
C       4.64381817      0.96089644     -1.09022364
H      -3.38682338      3.65971352      0.88040624
H      -4.77405407      2.80722283      0.17405342
H      -3.83943972      3.94801215     -0.80830339
H      -3.23218030      1.62814170     -1.41020033
H      -1.85737899      2.47184455     -0.70943921
H      -2.33528867      1.41066917      1.51654173
H      -3.70990168      0.55341729      0.82878066
H      -1.75825805     -1.68379435     -1.24039444
H      -3.30394523     -0.86287441     -1.13040444
H      -3.67677604     -1.87662351      1.14419982
H      -2.10882555     -2.66524965      1.05974545
H      -3.91942299     -4.23501983      0.44940736
H      -2.86106483     -3.96483969     -0.94572145
H      -4.44365228     -3.16553152     -0.86261497
H       0.16480249     -2.03407514      0.51548151
H       0.31040486     -1.33461475     -1.10748082
H       3.67995515     -0.64747167      1.76199912
H       5.99770412     -0.08719467      2.38963926
H       7.46009421      1.14505498      0.80892388
H       6.59281387      1.82229524     -1.41590760
H       4.27120509      1.26619998     -2.06619457
