56
O=C(NCc1ccc(OC(F)(F)F)cc1)C1c2ccccc2C(=O)N1CCCc1ccccn1
O       0.66715773     -0.19763778     -2.74946608
C       0.19332600     -0.52644026     -1.66330399
N       0.18436324      0.30470203     -0.56724208
C       0.65828139      1.66262785     -0.59360994
C       1.93559800      1.80426061      0.18914562
C       1.97001234      2.54109952      1.37866216
C       3.16482313      2.69299534      2.09441153
C       4.34117018      2.10434557      1.62853293
O       5.57086142      2.17508847      2.21503898
C       5.73088548      3.05663017      3.31142995
F       7.03229511      3.05681355      3.68382856
F       4.99277674      2.65909273      4.36844155
F       5.39412591      4.31944668      2.98021968
C       4.30566651      1.35371910      0.45039415
C       3.11740275      1.20732107     -0.26734900
C      -0.32653641     -1.95440165     -1.39702453
C       0.78951654     -2.90806311     -1.07951338
C       1.92901629     -3.21637627     -1.80437818
C       2.81399822     -4.16178627     -1.27401465
C       2.55123062     -4.78981779     -0.04225426
C       1.39784432     -4.48189246      0.67940431
C       0.54365247     -3.53955600      0.13860165
C      -0.73122115     -3.04559290      0.66858465
O      -1.27524361     -3.47101956      1.66944086
N      -1.17891887     -2.06186559     -0.20130958
C      -2.54879266     -1.56859490     -0.20762459
C      -2.90132468     -0.78441068      1.06000508
C      -4.28827017     -0.14053186      0.98465813
C      -4.42921938      0.92955916     -0.07421303
C      -5.68805277      1.21305727     -0.60401837
C      -5.80478929      2.20823230     -1.57052672
C      -4.66979911      2.89832544     -1.97635814
C      -3.46021901      2.56771063     -1.39045640
N      -3.31729284      1.60899087     -0.44746731
H      -0.17090229     -0.06796181      0.30599494
H       0.81199737      2.00824423     -1.62218879
H      -0.13338838      2.28154975     -0.15634854
H       1.06537935      3.00923198      1.76016172
H       3.13121401      3.27732972      3.00732765
H       5.21351616      0.88720700      0.07467176
H       3.11712362      0.63168277     -1.18992194
H      -0.90318902     -2.30702282     -2.25935121
H       2.13970120     -2.73605627     -2.75662034
H       3.71889188     -4.41708966     -1.82156201
H       3.25339882     -5.52276829      0.34883304
H       1.17466155     -4.95984097      1.62750378
H      -3.21388501     -2.43450650     -0.30982968
H      -2.67330507     -0.94428409     -1.09880347
H      -2.14296301     -0.01959785      1.25948589
H      -2.88434990     -1.45759965      1.92426352
H      -5.03234101     -0.92827720      0.80845468
H      -4.52314996      0.31609699      1.95477719
H      -6.56521968      0.66646963     -0.27497249
H      -6.77257442      2.44370809     -2.00004494
H      -4.72791876      3.67686995     -2.72910392
H      -2.54702193      3.08058373     -1.67196745
