40
C[C@]12CC[C@H]3C(=CCc4cc(O)ccc43)[C@@H]1CCC2=O
C       2.37673805      1.05240713      1.28092036
C       2.33076913      0.66672496     -0.20989497
C       1.53355339      1.68845167     -1.02245458
C       0.02840240      1.61468409     -0.69180008
C      -0.56664480      0.18035733     -0.78129994
C       0.33448959     -0.81912706     -0.05319281
C      -0.11605608     -1.65281170      0.89698557
C      -1.53821475     -1.69077910      1.36425952
C      -2.47045609     -0.73400094      0.66368808
C      -3.82701499     -0.73884797      1.03212442
C      -4.73205018      0.10240792      0.39859428
O      -6.03461054      0.05208085      0.79762075
C      -4.31586398      0.95634294     -0.61209799
C      -2.96998747      0.97082346     -0.98414174
C      -2.02661376      0.14314929     -0.34439254
C       1.76413079     -0.73712656     -0.51073419
C       2.85289081     -1.68913901     -0.01630679
C       4.13457843     -1.04436016     -0.56069840
C       3.76159545      0.42530763     -0.65320041
O       4.53259693      1.30150133     -1.02193417
H       1.38991652      1.02744916      1.75227981
H       2.77342034      2.06802608      1.39826229
H       3.03455669      0.39671667      1.86171353
H       1.90200382      2.70456057     -0.83606216
H       1.67506517      1.50908567     -2.09639156
H      -0.49771571      2.28751363     -1.37964789
H      -0.14211280      2.02231334      0.31335693
H      -0.56263933     -0.11876612     -1.84025869
H       0.55724559     -2.34642567      1.39234394
H      -1.91470433     -2.71150709      1.22429387
H      -1.55168832     -1.47023876      2.43858926
H      -4.18217719     -1.40674628      1.81325165
H      -6.54242917      0.69217033      0.27290675
H      -5.01513427      1.61055386     -1.12235724
H      -2.66201405      1.63474446     -1.78887267
H       1.73081095     -0.88545808     -1.60422203
H       2.72318030     -2.70633576     -0.39979011
H       2.88624245     -1.74815130      1.07720085
H       4.36655067     -1.41399376     -1.56363707
H       4.97939032     -1.19355705      0.11499618
