42
CC1(N)CN(c2c(F)cc3c(=O)c(C(=O)O)cn(C4CC4)c3c2F)C1
C       5.44644328      0.83802313      0.67991404
C       4.36761232      0.28521108     -0.21838632
N       4.81790755      0.14432139     -1.62172205
C       2.96816631      0.94699583     -0.19280653
N       2.40871879     -0.38221049     -0.26786590
C       1.07685191     -0.77068840      0.01711594
C       0.76714025     -2.08678514      0.38769486
F       1.73507087     -3.01033898      0.49160431
C      -0.53414758     -2.48381735      0.66965481
C      -1.57302268     -1.55596165      0.56777401
C      -2.95087183     -1.98615351      0.90517641
O      -3.20014273     -3.14734961      1.22244180
C      -4.03010375     -0.97941148      0.87828849
C      -5.42631355     -1.26093484      1.26966849
O      -6.30831089     -0.41454329      1.26465419
O      -5.65856459     -2.53897776      1.63859440
C      -3.69889532      0.25256947      0.46596125
N      -2.44408668      0.66347474      0.05095188
C      -2.28331288      2.05894580     -0.40307616
C      -1.92687290      2.37880474     -1.83533234
C      -3.27752539      2.74558021     -1.31130656
C      -1.33487003     -0.22705401      0.16881475
C       0.00315825      0.13879380     -0.08783705
F       0.28437088      1.40837907     -0.42561057
C       3.61864874     -0.99688003      0.22072420
H       5.77143028      1.82960383      0.34638941
H       5.09066478      0.93844621      1.71112503
H       6.32354967      0.18191014      0.69752977
H       5.57105643     -0.53143919     -1.74247096
H       4.06571663     -0.17584626     -2.23637694
H       2.71058103      1.45014109      0.74637924
H       2.70388929      1.58145990     -1.04352377
H      -0.72096751     -3.51212075      0.96829814
H      -4.86498862     -3.12626656      1.59191442
H      -4.45333389      1.03699019      0.42918779
H      -1.83200539      2.68225584      0.36677371
H      -1.20801126      3.17157644     -2.00645126
H      -1.86145670      1.56148215     -2.54367311
H      -3.48503541      3.79381339     -1.12923103
H      -4.12395994      2.18943371     -1.69620391
H       3.87832686     -1.92408137     -0.29785128
H       3.58749543     -1.16735146      1.30309438
