73
CCOc1ccccc1NC(=O)C(=O)Nc1ccc(CCCCCCCCCC(C)C)cc1
C       9.24948568      3.02953182     -1.53120470
C       9.78031001      1.61427038     -1.67613120
O       8.77257137      0.72088020     -1.20724527
C       9.05665951     -0.62429805     -1.22950547
C      10.24887742     -1.18422351     -1.69590410
C      10.42971055     -2.56877610     -1.66797070
C       9.42362472     -3.39665363     -1.17612543
C       8.22773454     -2.84707758     -0.71012869
C       8.03598833     -1.46413908     -0.73384221
N       6.85773763     -0.83938697     -0.28306766
C       5.72537527     -1.41130397      0.24294198
O       5.47575628     -2.59221366      0.44597268
C       4.65703059     -0.35827677      0.61233115
O       4.89258216      0.82127884      0.39250902
N       3.53496352     -0.93619901      1.16761291
C       2.37573512     -0.29592045      1.63564843
C       1.36677247     -1.10392016      2.17124232
C       0.18649967     -0.53927967      2.66558284
C      -0.00517163      0.84544572      2.63223981
C      -1.27315479      1.46368755      3.16641608
C      -2.21641707      1.98486014      2.07616919
C      -2.80865589      0.91603970      1.14844468
C      -3.71594033     -0.07977232      1.87483281
C      -4.33785564     -1.12886064      0.94686076
C      -5.23685425     -0.59383233     -0.17393923
C      -6.41514494      0.24085125      0.33587407
C      -7.35371072      0.71262982     -0.78145085
C      -8.21781760     -0.41335479     -1.35968760
C      -9.13498031      0.04562420     -2.51003521
C     -10.17073175      1.07691914     -2.05917841
C      -9.84698173     -1.16550076     -3.11875844
C       1.00427915      1.65065915      2.09205526
C       2.18481521      1.08485176      1.59772758
H       9.01360372      3.24684108     -0.48398262
H       9.98093714      3.75959304     -1.88777219
H       8.32094522      3.15149817     -2.09792686
H      10.69167628      1.51125891     -1.07622801
H       9.99860037      1.41998973     -2.73268050
H      11.05584953     -0.57459164     -2.08688956
H      11.35852830     -3.00263882     -2.03033792
H       9.56694696     -4.47432364     -1.15366666
H       7.46563237     -3.52204701     -0.33453005
H       6.84746919      0.17874536     -0.35966414
H       3.58060751     -1.95024734      1.24206075
H       1.48361248     -2.18399107      2.21429686
H      -0.58087014     -1.19102105      3.07685713
H      -0.99113369      2.30202091      3.81742871
H      -1.79475280      0.75654034      3.82173581
H      -3.04024628      2.52419897      2.56053356
H      -1.68927328      2.72266930      1.45829920
H      -3.38567638      1.43920866      0.37751048
H      -2.00770127      0.37954105      0.62736097
H      -3.13658809     -0.61834672      2.63319508
H      -4.50316359      0.45737361      2.41573400
H      -3.53335529     -1.72057872      0.49223303
H      -4.92173431     -1.82598296      1.56111257
H      -5.60880348     -1.45784188     -0.73572936
H      -4.64302813     -0.00318803     -0.88052453
H      -6.98373896     -0.32685641      1.08196595
H      -6.03005847      1.13410777      0.84141909
H      -6.77120583      1.18708550     -1.57998872
H      -8.00412248      1.48614456     -0.35856039
H      -7.56954099     -1.21227074     -1.73598697
H      -8.82389944     -0.85317913     -0.55746610
H      -8.51592214      0.49992707     -3.29421773
H     -10.86115500      1.31709802     -2.87572061
H     -10.76216880      0.70299496     -1.21590617
H      -9.69432715      2.01394397     -1.75394093
H     -10.47045659     -0.86447646     -3.96714710
H      -9.12274625     -1.90098697     -3.48441145
H     -10.49078430     -1.65892004     -2.38275681
H       0.88283847      2.73124173      2.05422944
H       2.93611303      1.75492571      1.19190249
