33
CC(=O)Nc1cc(NS(=O)(=O)C(F)(F)F)c(C)cc1C
C      -2.98094732     -3.32400363      0.95573880
C      -1.83977830     -2.33748234      0.99018395
O      -0.88977188     -2.50697166      1.74544199
N      -2.04216564     -1.27523960      0.12608228
C      -1.18198376     -0.17748268     -0.11993073
C       0.07794388     -0.06411465      0.47796516
C       0.90760766      1.03139515      0.21754109
N       2.20411339      1.05162877      0.81623458
S       3.45315677      0.22321599     -0.00332233
O       3.12361844      0.17897607     -1.41732915
O       4.65154836      0.93560920      0.41553186
C       3.44953771     -1.48399621      0.74538267
F       3.38622027     -1.44326699      2.10704758
F       4.57852862     -2.18003363      0.42597189
F       2.39544589     -2.23393848      0.31946138
C       0.49965272      2.04297839     -0.65803681
C       1.37299937      3.22160558     -0.98340529
C      -0.75906103      1.92911512     -1.26345570
C      -1.60549714      0.83333572     -1.00745525
C      -2.94007987      0.78998159     -1.70440084
H      -3.35697382     -3.45091226     -0.06359163
H      -3.78628664     -2.96918099      1.60412581
H      -2.63047152     -4.29744557      1.31081454
H      -2.91807462     -1.27844485     -0.37816681
H       0.43485394     -0.81933834      1.16887193
H       2.54646090      1.96374433      1.12065477
H       2.27245290      2.89720282     -1.51505083
H       1.66051041      3.74824388     -0.06779191
H       0.85256322      3.94345967     -1.62192410
H      -1.08543408      2.70494766     -1.95535755
H      -3.75192845      0.77617898     -0.97003322
H      -3.09315090      1.66645794     -2.34316631
H      -3.00560949     -0.09622497     -2.34383463
