60
CCCCCCCCCCCCCCCCCc1ncc[nH]1
C      -9.39500050     -0.77382792     -0.83735741
C      -8.75275150      0.32522665     -1.66894205
C      -7.35232007     -0.02828538     -2.17544384
C      -6.31142052     -0.34994717     -1.09718330
C      -6.04804613      0.81505267     -0.13988093
C      -5.00267086      0.49478289      0.93377283
C      -3.59146654      0.30207110      0.37408985
C      -2.57196522      0.10656114      1.49895269
C      -1.15976909     -0.09073057      0.94245955
C      -0.14249982     -0.28145978      2.06972644
C       1.27015239     -0.60308886      1.57066815
C       1.93025944      0.56035368      0.82589548
C       3.34407093      0.23770224      0.32831003
C       4.35294799      0.02602303      1.46033803
C       5.80206476     -0.06253966      0.96873925
C       6.06830510     -1.28935892      0.08889384
C       7.55064635     -1.46716306     -0.25095125
C       8.05660175     -0.40732512     -1.16908563
N       7.78518852     -0.28213506     -2.45174864
C       8.46697664      0.83022897     -2.87006753
C       9.16687525      1.39063895     -1.82979669
N       8.90067965      0.59276071     -0.75263006
H      -8.86270675     -0.92527868      0.10628705
H     -10.42835797     -0.50580732     -0.59475416
H      -9.41050534     -1.72215525     -1.38364456
H      -9.39208910      0.52236598     -2.53814889
H      -8.72712403      1.25499041     -1.09049015
H      -7.42904842     -0.89232939     -2.84752893
H      -6.98403616      0.80458893     -2.78740492
H      -5.38184951     -0.61979485     -1.61110977
H      -6.61869469     -1.23599493     -0.53020038
H      -6.97770924      1.08208700      0.37513132
H      -5.73388231      1.69907828     -0.70764051
H      -5.30763709     -0.40059748      1.48901193
H      -4.99009086      1.32297048      1.65341131
H      -3.56428425     -0.57071628     -0.28741599
H      -3.31156583      1.17565976     -0.22681177
H      -2.58525573      0.97904574      2.16348890
H      -2.85481840     -0.76457179      2.10239035
H      -0.89074557      0.78064753      0.33548326
H      -1.14492540     -0.96573615      0.28160413
H      -0.11480174      0.61519050      2.70078252
H      -0.47274646     -1.10828786      2.71099168
H       1.87614089     -0.86901487      2.44406141
H       1.23934283     -1.48845931      0.92430878
H       1.32576490      0.82709747     -0.04814676
H       1.96090489      1.44563214      1.47239290
H       3.68186261      1.07068012     -0.30061893
H       3.30393140     -0.64953363     -0.31375522
H       4.10931861     -0.88390339      2.02010174
H       4.28237910      0.86272183      2.16617101
H       6.45859979     -0.10180246      1.84680571
H       6.05471588      0.85547848      0.42542413
H       5.72746128     -2.18730450      0.61894980
H       5.48454581     -1.22321222     -0.83669778
H       8.14699989     -1.49884768      0.66873279
H       7.68506051     -2.43772821     -0.74403772
H       8.41680107      1.16667720     -3.89740480
H       9.80891306      2.25690197     -1.76503933
H       9.25327384      0.71400144      0.18656103
