28
Nc1nc(N)nc(N)n1.O=P(O)(O)OP(=O)(O)O
N      -2.21242371     -1.37398147      0.57817058
C      -1.06062780     -0.65776267      0.31528236
N      -1.17799054      0.65050344      0.16361469
C      -0.04310754      1.28407643     -0.07920914
N      -0.10125527      2.65497862     -0.24032426
N       1.13780603      0.70600771     -0.21780444
C       1.13169998     -0.60819124     -0.07473237
N       2.34182412     -1.26613984     -0.19211045
N       0.06542371     -1.34053055      0.19795784
O       1.54670954     -1.05519302      0.92659173
P       1.25522679      0.30199597      0.38668567
O       1.71976307      0.53832625     -1.12054036
O       2.00387642      1.48652206      1.15058746
O      -0.27352792      0.73649570      0.40153173
P      -1.31182081     -0.26856914     -0.25094487
O      -0.85100605     -0.91637598     -1.51295302
O      -1.66833263     -1.30625713      0.90713339
O      -2.67200526      0.55700849     -0.35159106
H      -2.10981116     -2.33086464      0.27028151
H      -3.02514194     -0.86602045      0.25887308
H      -1.03102331      2.93956679     -0.51423612
H       0.67081945      2.97570389     -0.80776258
H       3.10062331     -0.63229711      0.01835358
H       2.31318467     -2.13504892      0.32364572
H       1.33834237     -0.12496313     -1.73491561
H       2.95217816      1.29471966      1.26097641
H      -1.03138219     -2.04867213      0.94062367
H      -3.00802148      0.80496238      0.52783827
