30
Cc1cc(O)c2c(O)c3c(O)cccc3cc2c1
C       4.54811100      0.86839045      0.33392185
C       3.14611434      0.33424945      0.33561542
C       2.85324121     -0.89125514      0.93290576
C       1.53648636     -1.35583634      0.95151169
O       1.26722054     -2.57226527      1.53844202
C       0.46327239     -0.61744992      0.38888136
C      -0.89824833     -1.03160330      0.37367890
O      -1.25564240     -2.24560752      0.93777904
C      -1.94159357     -0.25566138     -0.19916885
C      -3.30989230     -0.63057345     -0.23598598
O      -3.75243736     -1.81520842      0.29725180
C      -4.28605238      0.17724207     -0.81347629
C      -3.92307897      1.39338739     -1.37606213
C      -2.58656297      1.79266822     -1.35700053
C      -1.59270527      0.98350149     -0.77593617
C      -0.25219595      1.40315054     -0.76682027
C       0.77142965      0.62648528     -0.19847377
C       2.10100538      1.08760221     -0.21325494
H       4.71789629      1.47595878      1.22809526
H       5.27785168      0.05203545      0.31707266
H       4.73023268      1.48397283     -0.55326998
H       3.65492878     -1.47359691      1.37809752
H       2.10538234     -2.94265976      1.86934598
H      -0.42344709     -2.63775306      1.28155687
H      -2.95578017     -2.25898302      0.65832744
H      -5.32258163     -0.14683881     -0.82085802
H      -4.67789988      2.03024252     -1.82884947
H      -2.32458797      2.74981975     -1.80378693
H       0.00079844      2.36289429     -1.21667975
H       2.32873518      2.05369157     -0.66286047
