22
O=C(O)/C=C\c1ccc2c(c1)OCO2
O      -2.35717299     -0.45536299      1.52589795
C      -3.10259092     -0.67778351      0.59467124
O      -4.38900428     -1.01772775      0.79025990
C      -2.82369482     -0.63934106     -0.85062375
C      -1.65585944     -0.31720031     -1.42781041
C      -0.41784385      0.08764950     -0.75725731
C      -0.33615388      1.31667584     -0.06774965
C       0.85527666      1.71653985      0.54723139
C       1.94019717      0.87381567      0.44854541
C       1.86891426     -0.32072643     -0.22870439
C       0.70870506     -0.74124264     -0.84502943
O       3.04862369     -0.99810169     -0.21103616
C       3.86367727     -0.10090261      0.57149631
O       3.17221567      1.09777458      0.97844013
H      -4.47443732     -1.02242233      1.76665033
H      -3.65932549     -0.92244431     -1.48337826
H      -1.58120753     -0.36299943     -2.51266062
H      -1.20801888      1.96357019      0.00083862
H       0.92154550      2.65413312      1.08662502
H       0.68101314     -1.68861595     -1.37154209
H       4.73893146      0.18487250     -0.02316432
H       4.20620955     -0.63016026      1.46830006
