35
CN(C)C(=O)Nc1ccc(Oc2ccc(Cl)cc2)cc1
C       5.82048684     -0.03419900     -1.20170086
N       4.55187753     -0.74017581     -1.12560093
C       4.64674396     -2.19323675     -1.18785210
C       3.49552610     -0.06371615     -0.50455311
O       3.65134507      1.04255723      0.00575860
N       2.29516145     -0.73699806     -0.56176721
C       1.09686281     -0.40354821      0.10088832
C       1.02621530      0.50584511      1.15917929
C      -0.19705881      0.77611686      1.78104047
C      -1.35762150      0.14501395      1.34042673
O      -2.52466678      0.42916717      2.01041502
C      -3.62602854      0.74543077      1.24749134
C      -4.84078752      0.17030061      1.62499352
C      -6.00465232      0.47248873      0.91532156
C      -5.94869979      1.36081300     -0.15847516
Cl     -7.38262804      1.73294364     -1.03360178
C      -4.74099379      1.95507119     -0.52421615
C      -3.57634419      1.65331896      0.18527093
C      -1.29535699     -0.79097340      0.30814268
C      -0.07102375     -1.05980335     -0.31066642
H       6.40384932     -0.42443970     -2.04073597
H       6.36777194     -0.18519405     -0.26623505
H       5.66361995      1.03773873     -1.35487028
H       3.67769144     -2.69126644     -1.13599140
H       5.24779784     -2.53663188     -0.33978536
H       5.13975027     -2.47580335     -2.12253743
H       2.21046490     -1.37510691     -1.33689371
H       1.91181839      1.01326251      1.53067060
H      -0.23851869      1.48278814      2.60543042
H      -4.87930044     -0.51442845      2.46808070
H      -6.94756902      0.01776314      1.20644990
H      -4.70016114      2.65686536     -1.35288382
H      -2.64139268      2.13416725     -0.09042646
H      -2.18869784     -1.31738962     -0.01551136
H      -0.04548129     -1.78874121     -1.11613199
