43
CN(C)CCCN1c2ccccc2Sc2ccc(C(F)(F)F)cc21
C      -3.05936477     -2.22193741     -0.38364635
N      -3.05337213     -0.92713371     -1.07384827
C      -4.28229073     -0.79656188     -1.86415362
C      -2.93985041      0.19361411     -0.12654129
C      -1.53247652      0.35843719      0.45932158
C      -0.48341597      0.64646540     -0.62629991
N       0.86023114      0.87108079     -0.03489365
C       1.21939948      2.21537735      0.27892642
C       0.26777240      3.26060842      0.32886937
C       0.60937853      4.58156630      0.64586563
C       1.92389751      4.90692457      0.93012716
C       2.88817218      3.90713964      0.89851047
C       2.54836580      2.57586552      0.58211623
S       3.90713997      1.43166457      0.56597167
C       3.08463376     -0.13192353      0.38805684
C       3.91104472     -1.26474250      0.52655640
C       3.39993009     -2.55128036      0.39137534
C       2.04621008     -2.72719885      0.11927567
C       1.46256814     -4.10789092     -0.04855431
F       2.13722080     -5.06416682      0.64917440
F       1.46677739     -4.51878079     -1.34616777
F       0.16679841     -4.19375266      0.36639536
C       1.23039093     -1.58786412     -0.03061838
C       1.71270962     -0.26409949      0.09782494
H      -3.89506360     -2.31106208      0.31999094
H      -3.13308508     -3.04045433     -1.10885914
H      -2.12854524     -2.38675666      0.16619701
H      -4.36046282     -1.61097172     -2.59319257
H      -5.18070747     -0.80562430     -1.23626964
H      -4.27180312      0.13548345     -2.44025443
H      -3.66715274      0.08866508      0.68908930
H      -3.18558703      1.13329240     -0.63930239
H      -1.56102499      1.18389002      1.18029843
H      -1.25540546     -0.52203345      1.04810957
H      -0.79240165      1.50440224     -1.23711295
H      -0.45186520     -0.15912566     -1.36998181
H      -0.78479008      3.08217234      0.13699691
H      -0.16003845      5.34905758      0.67180222
H       2.19997634      5.92811728      1.17658120
H       3.92015245      4.17053657      1.12281280
H       4.97200183     -1.14451818      0.74082692
H       4.06230083     -3.40789856      0.50183294
H       0.18163105     -1.77858284     -0.24095318
