25
O=c1[nH]c2ccccc2c(=O)n1CCO
O      -1.26129641     -1.14585932     -2.24417381
C      -0.58148271     -0.79531548     -1.27929122
N       0.74248597     -0.51903785     -1.45335619
C       1.56896904     -0.03007245     -0.44570265
C       2.91553649      0.22270088     -0.70663499
C       3.73182775      0.72716329      0.30865645
C       3.20287942      0.98030019      1.57599233
C       1.85433399      0.72888601      1.83252593
C       1.04026073      0.22102149      0.81537307
C      -0.39108468     -0.05369032      1.04678287
O      -0.89280014      0.23996081      2.12926708
N      -1.09799376     -0.62995810     -0.00724206
C      -2.51445182     -0.93422840      0.20603781
C      -3.42654194      0.19573343     -0.28516358
O      -3.66346158      0.13089819     -1.69073712
H       1.10156819     -0.66285286     -2.38867961
H       3.34194122      0.03446247     -1.68819596
H       4.78318348      0.92601189      0.11185074
H       3.84076702      1.37511510      2.36375092
H       1.44245576      0.92880116      2.81948991
H      -2.75237565     -1.86606517     -0.32045421
H      -2.68805238     -1.09880759      1.27492234
H      -3.01147164      1.18094622     -0.05014623
H      -4.40429522      0.11333210      0.19946780
H      -2.88090113     -0.26944570     -2.12433963
