22
Clc1cccc(-c2ccccc2Cl)c1
Cl      3.44161705     -0.28563618     -2.98079509
C       2.70949951     -0.22096338     -1.42438947
C       3.50771203     -0.26828631     -0.28379021
C       2.91429964     -0.21357479      0.97607319
C       1.52558174     -0.11160182      1.08902420
C       0.71078631     -0.06628005     -0.05434224
C      -0.74960484      0.04968997      0.06565622
C      -1.35828932      1.29344878     -0.18757067
C      -2.74215444      1.45597602     -0.08490741
C      -3.54543217      0.37692435      0.27202846
C      -2.96544798     -0.86521871      0.52528199
C      -1.57920692     -1.03017618      0.42310113
Cl     -0.94035792     -2.60830705      0.73685163
C       1.32227901     -0.11948025     -1.31659598
H       4.58790123     -0.34904880     -0.36950386
H       3.53049189     -0.25223306      1.87085420
H       1.07641028     -0.07087662      2.08005398
H      -0.74681221      2.15115415     -0.46443343
H      -3.19047840      2.42663878     -0.28365145
H      -4.62256260      0.50130937      0.35172928
H      -3.59882139     -1.70516076      0.79993451
H       0.71258951     -0.08829745     -2.21681836
