26
CNC(=O)Oc1cccc2ccccc12
C       4.53186241      0.67193049     -0.45492450
N       3.33101519     -0.07245042     -0.71781705
C       2.20661741      0.07336936      0.04819376
O       2.08043487      0.89666546      0.94369291
O       1.26671177     -0.86273928     -0.34937287
C       0.06172240     -0.79350118      0.36698088
C       0.00153417     -1.42091990      1.61357358
C      -1.19293753     -1.40806909      2.32428547
C      -2.31973849     -0.78576840      1.78167475
C      -2.27291119     -0.17011818      0.51767997
C      -3.41182844      0.44447062     -0.02873905
C      -3.36700671      1.04886052     -1.28572811
C      -2.18300528      1.04733296     -2.01464813
C      -1.04150001      0.44246870     -1.48621328
C      -1.06369449     -0.17233340     -0.21608318
H       5.14215452      0.67924181     -1.36085775
H       5.07762958      0.17887764      0.35377303
H       4.29054879      1.69622986     -0.15858522
H       3.35235294     -0.87541787     -1.33049704
H       0.87967291     -1.90474153      2.02978364
H      -1.25053874     -1.88009594      3.30145121
H      -3.24403133     -0.78640851      2.35600804
H      -4.34808795      0.45661571      0.52504990
H      -4.25698674      1.52110150     -1.69317276
H      -2.14421606      1.51876204     -2.99301205
H      -0.12577399      0.45663701     -2.07249616
