49
O=C(NCc1ccccc1Br)C1c2ccccc2C(=O)N1CCc1ccccn1
O       1.55494137      0.87234288     -2.52616866
C       0.90502275      0.51149867     -1.54854429
N       1.44916314      0.45997745     -0.27909855
C       2.77739112      0.96521522     -0.02665702
C       3.23238057      0.60064074      1.35856198
C       3.88962313     -0.62856967      1.54396081
C       4.29940879     -1.04544189      2.80810207
C       4.04380914     -0.24608998      3.91761417
C       3.38592578      0.97210377      3.75944513
C       2.98047855      1.39482157      2.48886026
Br      2.05712027      3.04973421      2.38581168
C      -0.58584885      0.12641877     -1.59430828
C      -1.02836294     -0.42340333     -2.92262575
C      -0.56713415     -1.52106139     -3.63066888
C      -1.18342731     -1.82875278     -4.84808900
C      -2.24938879     -1.05143512     -5.33759742
C      -2.71405540      0.04891484     -4.61778527
C      -2.08498939      0.33633621     -3.42217381
C      -2.37877154      1.40891870     -2.46718209
O      -3.29094657      2.20578646     -2.57158314
N      -1.46058725      1.29454385     -1.43886799
C      -1.51433765      2.10864802     -0.23336997
C      -2.45989692      1.56248574      0.83930550
C      -1.97594007      0.31966666      1.55295896
C      -2.91064726     -0.60805835      2.01433480
C      -2.46907088     -1.71333740      2.73749999
C      -1.11678858     -1.85541456      3.00497417
C      -0.25355470     -0.88766526      2.52360945
N      -0.64642789      0.18881427      1.79778601
H       0.79610882      0.43178689      0.50666446
H       3.46125794      0.54403374     -0.77199267
H       2.78448344      2.04498430     -0.19732810
H       4.08832461     -1.27142777      0.68783597
H       4.81496895     -1.99254918      2.92867895
H       4.35692945     -0.56687282      4.90751609
H       3.18729764      1.58501449      4.63370241
H      -0.82394037     -0.60881399     -0.81877640
H       0.25619626     -2.12306078     -3.26313267
H      -0.83330106     -2.68030862     -5.43108434
H      -2.71095728     -1.31038106     -6.28689493
H      -3.53440559      0.65997529     -4.97638895
H      -0.50378389      2.27258258      0.14639148
H      -1.89526307      3.09294545     -0.53348553
H      -3.43775096      1.36524354      0.38351902
H      -2.60936317      2.33544396      1.60305419
H      -3.96951899     -0.47529655      1.81819197
H      -3.18147287     -2.45004370      3.09869331
H      -0.74419329     -2.69600966      3.57726315
H       0.81329495     -0.95425608      2.71946776
