37
Cc1cc(Oc2cc(C)cc(S(=O)(=O)[O-])c2)cc(S(=O)(=O)[O-])c1.[Na+].[Na+]
C      -3.04272205      1.32723495      2.08705352
C      -2.68982830      0.46751228      0.91229464
C      -1.53164501      0.72463647      0.16471947
C      -1.20923066     -0.06961905     -0.94494256
O      -0.08355962      0.17015598     -1.70568984
C       1.10958680      0.27060225     -1.02070220
C       1.53257140     -0.72717915     -0.13105823
C       2.75932078     -0.61119996      0.53812068
C       3.22378403     -1.69095041      1.46659481
C       3.57103697      0.49952482      0.27800497
C       3.14461356      1.48428576     -0.62268161
S       4.22933970      2.89806346     -0.95038849
O       5.56561377      2.30864214     -0.88736575
O       3.81891597      3.34494525     -2.27889380
O       3.89197539      3.79938323      0.14794487
C       1.92249573      1.36996030     -1.28929206
C      -2.06083257     -1.09464789     -1.35204976
C      -3.22497627     -1.33663220     -0.61891419
S      -4.32836575     -2.69432264     -1.09035459
O      -4.79954385     -3.19677781      0.19917787
O      -3.45267218     -3.60837855     -1.81917313
O      -5.33219003     -2.00615343     -1.89687498
C      -3.54072925     -0.56876399      0.50945807
Na      0.00000000      0.00000000      0.00000000
Na      0.00000000      0.00000000      0.00000000
H      -3.63478636      2.18665745      1.75787950
H      -2.14028737      1.69039594      2.59001709
H      -3.62041955      0.76210395      2.82605664
H      -0.87545765      1.54564241      0.44459941
H       0.90291692     -1.59846456      0.03445950
H       3.87344807     -1.28244880      2.24781110
H       2.37428909     -2.16692396      1.96764790
H       3.77766958     -2.45217633      0.90870229
H       4.53799733      0.61445059      0.76300564
H       1.61273580      2.13258836     -1.99729393
H      -1.82662142     -1.70191795     -2.22110816
H      -4.45444301     -0.79022895      1.05672366
