31
CC(CC(C)(C)C#N)c1ccccc1
C       0.25096973     -0.27702954     -2.76115872
C      -0.04055932     -0.51714358     -1.27090027
C      -1.29556734      0.29050394     -0.84592605
C      -1.98499374     -0.08994811      0.49671977
C      -1.11047480      0.18382103      1.72775216
C      -3.26506928      0.76371253      0.62829890
C      -2.38104804     -1.51698571      0.48352044
N      -2.68982978     -2.63556885      0.46312372
C       1.21116342     -0.21564694     -0.46648758
C       1.71118164      1.08869404     -0.33124655
C       2.86904883      1.33480559      0.40953501
C       3.54687241      0.28121074      1.01791121
C       3.07106718     -1.02036089      0.88181196
C       1.91387365     -1.26841240      0.14134233
H      -0.59847927     -0.59217509     -3.37695824
H       0.44288654      0.78069303     -2.97323386
H       1.12713605     -0.84835137     -3.08849582
H      -0.27204269     -1.58512412     -1.17377345
H      -1.06317752      1.36360195     -0.83539575
H      -2.04421918      0.16343221     -1.64254651
H      -1.68843027      0.07249870      2.65392846
H      -0.70982884      1.20312995      1.71295379
H      -0.27671420     -0.51858137      1.80914552
H      -3.81656773      0.52143461      1.54491526
H      -3.94851661      0.59318610     -0.21232191
H      -3.02602473      1.83299298      0.65457164
H       1.20933829      1.92773487     -0.80689398
H       3.24531271      2.34984530      0.50724911
H       4.44898888      0.47326174      1.59260320
H       3.60178941     -1.84519066      1.35033627
H       1.56191459     -2.29404069      0.04615849
