13
N#Cc1c(Cl)cccc1Cl
N       3.62075596      0.14850448      0.28849058
C       2.46452734      0.10108213      0.19636692
C       1.03692548      0.04252939      0.08262050
C       0.28397794      1.21365179     -0.08326040
Cl      1.01945916      2.77784887     -0.15979809
C      -1.11035176      1.15514009     -0.19424078
C      -1.76675773     -0.07246318     -0.14077004
C      -1.02936591     -1.24290010      0.02375483
C       0.36505310     -1.18703173      0.13497495
Cl      1.20400439     -2.68665427      0.33695482
H      -1.69091828      2.06686031     -0.32291208
H      -2.85047956     -0.11691150     -0.22711823
H      -1.54683011     -2.19965627      0.06493703
