22
C=C(CC(Cl)(Cl)Cl)c1ccccc1
C       0.99609172      0.71305925      2.11803196
C       0.81694398      0.03449548      0.97119515
C       1.89530514     -0.85818776      0.37886477
C       2.62155758     -0.34776341     -0.88763855
Cl      3.97712367     -1.47906592     -1.26618382
Cl      1.55511851     -0.30559378     -2.32467643
Cl      3.33335566      1.27884112     -0.63467092
C      -0.49794263      0.09452111      0.30639708
C      -1.24642897     -1.06935354      0.08897812
C      -2.48473404     -1.00614594     -0.55473792
C      -2.98635100      0.22009214     -0.98632526
C      -2.25290478      1.38501647     -0.77260056
C      -1.01562162      1.32336803     -0.12805264
H       1.93665162      0.68062165      2.66000929
H       0.20736323      1.31867354      2.55767812
H       2.65201400     -1.03011067      1.15933946
H       1.47575066     -1.85425098      0.18317834
H      -0.88293996     -2.03561404      0.42912716
H      -3.05863710     -1.91475012     -0.71774577
H      -3.94878929      0.26794195     -1.48916849
H      -2.64100582      2.34219124     -1.11099682
H      -0.45192054      2.24201418      0.01999774
