24
NC(N)=NS(=O)(=O)c1ccc(N)cc1
N      -3.71125869     -0.49917142      1.58898558
C      -3.12694423     -0.57776525      0.36951846
N      -3.88719035     -1.36345102     -0.43342699
N      -2.04719759     -0.05311656     -0.08251415
S      -1.14478274      0.92251440      0.84353119
O      -1.18355735      0.47866181      2.22793205
O      -1.45634078      2.30076678      0.51578784
C       0.51268402      0.60612811      0.27172420
C       1.04762181     -0.67519894      0.42433904
C       2.34673028     -0.93391000     -0.01991256
C       3.12952107      0.08487907     -0.57357708
N       4.38158559     -0.21137692     -1.12370464
C       2.55713573      1.34670155     -0.76880607
C       1.25912571      1.62060483     -0.32874890
H      -3.08890979     -0.14910961      2.32143536
H      -4.12987165     -1.37454810      1.88380532
H      -4.87645883     -1.15480751     -0.35280108
H      -3.58903940     -1.29484401     -1.40231296
H       0.45904340     -1.47181520      0.87258882
H       2.74573295     -1.94095613      0.07130157
H       4.84790700     -1.00003457     -0.68641477
H       4.99261751      0.59450733     -1.21391092
H       3.12123769      2.13146142     -1.26675250
H       0.84060863      2.61387997     -0.47248434
