50
CC[C@H]1[C@@H]2C[C@H]3[C@@H]4N(C)c5ccccc5[C@]45C[C@@H](C2C5O)N3[C@@H]1O
C       5.31670091      0.25458726     -1.09182800
C       3.92581120      0.86634086     -1.20471313
C       3.09833846      0.68433408      0.08122205
C       1.81794725      1.57147348      0.08209804
C       1.13684776      1.25381989      1.42313387
C       0.46359252     -0.14011861      1.29444225
C      -1.05484454      0.10250718      1.01933755
N      -1.99345453     -0.98355425      1.41231677
C      -2.23623035     -1.20270333      2.83030590
C      -3.14419498     -0.62406900      0.63971643
C      -4.45869805     -1.01010022      0.84592768
C      -5.44441888     -0.53965480     -0.02867813
C      -5.11085790      0.29583165     -1.10558492
C      -3.78546061      0.66656692     -1.33262435
C      -2.81818522      0.20022548     -0.45907960
C      -1.33702786      0.36910386     -0.48759965
C      -0.68040317     -0.70930234     -1.34951471
C       0.78295059     -0.39850120     -1.10532679
C       0.87894081      1.16124119     -1.09034741
C      -0.59890800      1.63847913     -0.95000164
O      -1.04801536      2.05183476     -2.24398288
N       1.17475277     -0.93180298      0.22685477
C       2.63770999     -0.78408925      0.32039792
O       3.06001370     -1.22680346      1.59502803
H       5.87129564      0.69470206     -0.25692978
H       5.88435235      0.44146921     -2.00903716
H       5.27128290     -0.82777375     -0.94127638
H       4.03902872      1.93719634     -1.41293616
H       3.41928481      0.42529506     -2.06946938
H       3.72753697      1.00757058      0.92297718
H       2.07668187      2.63428665      0.02572268
H       1.87419829      1.24136906      2.23641537
H       0.42799080      2.04535989      1.68869124
H       0.56693641     -0.66318101      2.25150805
H      -1.36575880      0.98758490      1.60048193
H      -1.29311365     -1.39126327      3.35246447
H      -2.71381766     -0.33520803      3.29995137
H      -2.86288516     -2.08660986      2.98906597
H      -4.73419674     -1.66967689      1.66002299
H      -6.48033060     -0.83305539      0.12193525
H      -5.89029120      0.64246572     -1.77959856
H      -3.52259011      1.28635932     -2.18358634
H      -0.93777543     -0.59073590     -2.40995328
H      -0.94303481     -1.73698136     -1.07025049
H       1.38939406     -0.84800382     -1.90037495
H       1.30546456      1.51009136     -2.03866698
H      -0.72964074      2.48842379     -0.27362946
H      -0.58031377      2.87502392     -2.46830142
H       3.10808584     -1.46016434     -0.40236964
H       2.50930894     -2.01518966      1.74564342
