23
Clc1ccc(Oc2ccccc2Cl)c(Cl)c1
Cl      5.04223995      1.34941898     -0.79863574
C       3.55556331      0.66206776     -0.27156948
C       2.69203668      0.08843231     -1.20482763
C       1.48439326     -0.46983736     -0.78187459
C       1.13944495     -0.43793198      0.57454999
O      -0.02886528     -1.01900466      1.01843597
C      -1.19246906     -0.57154517      0.43056541
C      -1.54822897      0.78086271      0.49325263
C      -2.74889116      1.21183281     -0.07318195
C      -3.60105382      0.29441913     -0.68844479
C      -3.25809593     -1.05848140     -0.73298781
C      -2.05786276     -1.49372016     -0.16714786
Cl     -1.66761040     -3.17281469     -0.24583750
C       2.02199477      0.12112937      1.50670361
Cl      1.64265453      0.15887108      3.19008747
C       3.22910205      0.67932554      1.08326669
H       2.95615816      0.06569903     -2.25936665
H       0.82556569     -0.93624200     -1.50998468
H      -0.90301174      1.49953952      0.99146244
H      -3.02434670      2.26300903     -0.02645037
H      -4.53788920      0.63164093     -1.12608393
H      -3.93194089     -1.76812474     -1.20626471
H       3.91111255      1.12145395      1.80433346
