30
CN(C)C1CCC=CCCC1
C      -2.83137301      0.12770592     -1.18046188
N      -2.02165361      0.52979645     -0.03164652
C      -2.61203772      0.03948570      1.21306265
C      -0.57992634      0.20443409     -0.20328605
C      -0.26963083     -1.30424434      0.01292261
C       1.07727055     -1.78763090     -0.53586008
C       2.26384344     -1.41045537      0.30087403
C       2.88224743     -0.22077916      0.26995567
C       2.45777768      0.92852468     -0.59125914
C       1.44262066      1.83157497      0.10365599
C       0.22877948      1.13480236      0.74148786
H      -2.88962459     -0.95893140     -1.29936590
H      -3.85312809      0.51101383     -1.07867694
H      -2.43324988      0.55644815     -2.10672512
H      -3.61404425      0.46328236      1.34627233
H      -2.02870078      0.35196650      2.08530357
H      -2.70649628     -1.05164603      1.23315085
H      -0.31532552      0.46962732     -1.23486343
H      -1.03378463     -1.90133626     -0.49954162
H      -0.34458614     -1.56164899      1.07738849
H       1.05434011     -2.88465513     -0.58063720
H       1.20511003     -1.46479217     -1.57521198
H       2.63352769     -2.17068312      0.98681480
H       3.72753994     -0.04868717      0.93333772
H       3.34598999      1.51701259     -0.85230278
H       2.05584135      0.58039501     -1.54857342
H       1.95351894      2.40455523      0.88868471
H       1.08418932      2.57043719     -0.62439632
H      -0.41232057      1.95105631      1.10413312
H       0.53328563      0.59337136      1.64576398
