17
Cc1ncc([N+](=O)[O-])n1C
C      -2.38348059      0.36842693     -0.06089559
C      -0.93353851      0.69696722     -0.07935852
N      -0.43921556      1.91524407     -0.19676177
C       0.92302487      1.77810646     -0.16933244
C       1.26227032      0.45672306     -0.03321772
N       2.56700790     -0.10564761      0.03634390
O       2.66338936     -1.33146109      0.16042700
O       3.51322997      0.68680226     -0.03376230
N       0.08063023     -0.23940081      0.02485234
C      -0.10076105     -1.66637794      0.16635274
H      -2.98228732      1.27960704     -0.15841334
H      -2.64182884     -0.29386129     -0.89271772
H      -2.65960560     -0.11574419      0.88071517
H       1.57892414      2.63636521     -0.24895710
H      -1.16285518     -1.91760550      0.18093603
H       0.34853706     -1.98380568      1.11064409
H       0.36655880     -2.16433812     -0.68685476
