59
CC(=O)N1CCN(C(=O)/C=C/c2ccc(Sc3ccccc3C(C)C)c([N+](=O)[O-])c2)CC1
C       8.04513446      0.75254971      2.44230096
C       6.76674629      1.44621186      2.04720189
O       5.99162241      1.86648819      2.90849542
N       6.51564425      1.58318782      0.68709875
C       5.21760027      2.11857519      0.28677691
C       4.22506018      0.97195787      0.03650735
N       4.76791229     -0.05294909     -0.88221167
C       3.96372767     -1.00189827     -1.50382149
O       4.38926780     -2.06877479     -1.93833552
C       2.52207735     -0.67331301     -1.63063075
C       1.61864391     -1.63743516     -1.39442337
C       0.16329350     -1.46990269     -1.48783423
C      -0.62548078     -2.57462015     -1.82464930
C      -2.02232523     -2.47529514     -1.89263929
C      -2.67593710     -1.27000346     -1.61003486
S      -4.46286244     -1.27731021     -1.68150375
C      -4.89027335     -1.19106569      0.06134404
C      -4.46392916     -2.24637350      0.88868937
C      -4.77968295     -2.27188521      2.24694452
C      -5.54257651     -1.25009522      2.79427572
C      -5.98898018     -0.20636040      1.98371254
C      -5.66949537     -0.14675921      0.60911608
C      -6.21035116      1.01193540     -0.22584200
C      -5.97792132      2.37993704      0.42299464
C      -7.69763197      0.80723642     -0.52385431
C      -1.87607426     -0.17112413     -1.27850264
N      -2.45794442      1.12655861     -1.00027428
O      -2.22216735      1.61715640      0.11368135
O      -3.09128511      1.67930802     -1.90984054
C      -0.47452303     -0.25920567     -1.20233095
C       6.15620825     -0.47095417     -0.61941303
C       7.09843043      0.70867037     -0.33344461
H       8.20493419      0.87464845      3.51809438
H       7.97339011     -0.31785209      2.22328297
H       8.89904321      1.19637278      1.92087198
H       5.36855911      2.69171502     -0.63702093
H       4.82447351      2.80651365      1.04276325
H       3.29454213      1.38912229     -0.35353853
H       3.99004108      0.45773737      0.97721027
H       2.26427450      0.33053655     -1.92919984
H       1.96566540     -2.63532621     -1.12726038
H      -0.16064723     -3.53625077     -2.03883575
H      -2.59488919     -3.36123120     -2.16088281
H      -3.88804121     -3.07345883      0.48023466
H      -4.44037792     -3.09393036      2.87101823
H      -5.80280277     -1.26651452      3.85042943
H      -6.60494100      0.56623310      2.44087410
H      -5.68945018      1.05822951     -1.18489924
H      -6.25826169      3.18275228     -0.26808292
H      -6.57060018      2.51400311      1.33291795
H      -4.92660202      2.51750479      0.68302806
H      -8.29651271      0.79281243      0.39321105
H      -7.86694228     -0.13977435     -1.04744193
H      -8.07753659      1.61419255     -1.16077767
H       0.10169530      0.61529418     -0.91172231
H       6.12461952     -1.14405090      0.24652798
H       6.54010161     -1.04328819     -1.47149505
H       8.08290617      0.33949027     -0.03641625
H       7.23143177      1.31007136     -1.24107600
