43
CCCCCCCCC(=O)NNC(=O)c1ccncc1
C      -7.88211813      0.87060840      0.35377142
C      -6.61483093      0.04635334      0.51523906
C      -5.43430345      0.68512625     -0.21602900
C      -4.16088422     -0.14778867     -0.05153135
C      -2.98001969      0.49632279     -0.78114856
C      -1.70566225     -0.35306138     -0.74902846
C      -1.12204770     -0.52000688      0.65813848
C       0.20572921     -1.27766158      0.64801275
C       1.37189263     -0.44857319      0.14578533
O       1.32152092      0.75548083     -0.09425772
N       2.52947825     -1.18909057     -0.00947835
N       3.71405098     -0.47200878     -0.22876527
C       4.88043589     -0.97362771      0.31076067
O       4.93422199     -2.08170486      0.84073292
C       6.09519108     -0.12165543      0.21327240
C       6.03468382      1.26410109      0.05927222
C       7.22958772      1.95949806     -0.01439179
N       8.44432897      1.37594179      0.05673617
C       8.47424753      0.03683330      0.22125350
C       7.33984471     -0.74773500      0.30766284
H      -7.74967666      1.87777437      0.76170550
H      -8.71328065      0.39577236      0.88444030
H      -8.15980561      0.96064707     -0.70127175
H      -6.79091799     -0.96366585      0.12722988
H      -6.38329040     -0.05164763      1.58223720
H      -5.26437205      1.69643407      0.17317980
H      -5.67354821      0.78491478     -1.28179772
H      -4.32970487     -1.15758770     -0.44448312
H      -3.93435858     -0.24695513      1.01586202
H      -3.25422483      0.65941002     -1.83091497
H      -2.77362980      1.48447170     -0.35221089
H      -0.96524202      0.12567129     -1.40046511
H      -1.91191460     -1.33966344     -1.18173370
H      -0.99593774      0.46173258      1.12984846
H      -1.82767757     -1.08591048      1.27681974
H       0.44674268     -1.57938949      1.67461638
H       0.12142433     -2.18680433      0.04163892
H       2.64854415     -2.08493220      0.46480025
H       3.59890616      0.46202997     -0.61384489
H       5.10234732      1.81335903      0.02187780
H       7.24350794      3.04016048     -0.13017401
H       9.46625025     -0.40177336      0.28472561
H       7.42451142     -1.82139986      0.44284683
