20
O=C1C(O)=C(O)O[C@@H]1[C@H](O)C[O-].[Na+]
O       1.64729959     -1.86377060      0.50275032
C       1.19318295     -0.88793878     -0.08241238
C       1.94794549      0.35305959     -0.22150076
O       3.15897774      0.60302202      0.34691033
C       1.13820139      1.11678463     -0.95193127
O       1.38678294      2.42285626     -1.26303303
O      -0.05559866      0.56249804     -1.38646193
C      -0.13102347     -0.74982802     -0.77770407
C      -1.31498565     -0.93285192      0.18276126
O      -2.54266652     -0.94123840     -0.57321768
C      -1.46370236      0.12569992      1.33257082
O      -1.99468394      1.23265114      0.82161762
Na      0.00000000      0.00000000      0.00000000
H       3.33625137     -0.18556620      0.89487478
H       0.48252450      2.76695141     -1.40177460
H      -0.18160169     -1.47192124     -1.60067440
H      -1.22654387     -1.92441870      0.64496197
H      -2.83507051     -0.00983844     -0.40034162
H      -2.06016336     -0.39538575      2.10024908
H      -0.48512593      0.17923504      1.83235554
