54
CCCCCCCC(=O)OC1C(C(O)CO)OC2OC(C)(C)OC21
C       7.16695113     -0.90406896     -0.76606154
C       5.91058928     -1.41945009     -0.08223704
C       4.95712499     -0.27758559      0.27278722
C       3.69400096     -0.80437294      0.95688587
C       2.75267860      0.30394386      1.43852194
C       2.14551765      1.12357571      0.29535299
C       1.12196170      2.14514167      0.79016697
C      -0.11269216      1.51464945      1.38453587
O      -0.54563960      1.76384630      2.50145160
O      -0.69297775      0.65215971      0.50682448
C      -1.89725153      0.04205973      0.97572626
C      -2.39414221     -1.01836284     -0.00142053
C      -1.73824188     -2.39301878      0.15604619
O      -2.34268040     -3.30952292     -0.78005880
C      -0.23304221     -2.38889078     -0.10979209
O       0.26331421     -3.72468088     -0.01941707
O      -3.81427652     -1.16227382      0.25575804
C      -4.25115239      0.02141245      0.94840597
O      -5.26322482      0.70091905      0.22757568
C      -4.59330432      1.70802958     -0.53622858
C      -5.21586694      3.05964018     -0.20476792
C      -4.73232603      1.38984981     -2.01911807
O      -3.19871373      1.74448152     -0.20166512
C      -3.08691311      0.97979917      1.00747084
H       6.92127834     -0.38111612     -1.69586641
H       7.83390906     -1.73664296     -1.01071311
H       7.71167754     -0.21210577     -0.11585207
H       5.40671597     -2.13240049     -0.74523501
H       6.19396327     -1.96460541      0.82562203
H       4.69149706      0.26355011     -0.64216182
H       5.46578093      0.43277154      0.93557524
H       3.15479069     -1.47334753      0.27501075
H       3.98305027     -1.40757401      1.82658336
H       3.28853216      0.96961425      2.12599768
H       1.95037296     -0.16771795      2.01837084
H       2.93970006      1.66866953     -0.22698560
H       1.68647833      0.45001709     -0.43778131
H       1.57652893      2.79327087      1.54828443
H       0.80053411      2.79058721     -0.03509010
H      -1.74086538     -0.41369945      1.96334428
H      -2.28851709     -0.68744219     -1.04287636
H      -1.94478520     -2.81111244      1.14823617
H      -3.30682858     -3.15424348     -0.71104233
H       0.30832574     -1.78236256      0.61976242
H      -0.00901198     -2.02403418     -1.11730843
H      -0.38098626     -4.26555507     -0.52093210
H      -4.61740560     -0.28074193      1.93412947
H      -4.71920973      3.87036004     -0.74802957
H      -5.11491089      3.27765881      0.86470043
H      -6.28601844      3.07256617     -0.43663150
H      -4.28588636      0.41566103     -2.24769207
H      -4.21689365      2.13337866     -2.63599133
H      -5.78446072      1.33957046     -2.31832912
H      -3.11704845      1.66974520      1.85512467
