39
CC(=O)Nc1ccc(C(=O)Nc2ccc(OC(C)=O)cc2)cc1
C      -8.05696254      0.33537737     -0.75692575
C      -6.60996499      0.66866188     -0.49017252
O      -6.23834001      1.83459401     -0.41931260
N      -5.82215447     -0.46323669     -0.38157387
C      -4.43631401     -0.52280536     -0.12970778
C      -3.84588315     -1.79275494     -0.10108173
C      -2.47607596     -1.93782500      0.14114446
C      -1.67552853     -0.81088516      0.35026070
C      -0.21963084     -1.00786352      0.60461957
O       0.12984006     -2.01981008      1.20020789
N       0.60028954     -0.01831417      0.09309936
C       2.00359842      0.07431059      0.20545642
C       2.62847533      1.13860775     -0.46195430
C       4.01444056      1.30684555     -0.40047660
C       4.77965185      0.39418026      0.31915547
O       6.16609689      0.53837585      0.45942150
C       6.91260199      0.59541712     -0.71389009
C       8.36000756      0.75252598     -0.35294887
O       6.49250073      0.52965344     -1.86080709
C       4.17587133     -0.65367087      1.00754761
C       2.78802485     -0.81467575      0.94520061
C      -2.26302233      0.45836260      0.34517921
C      -3.63559897      0.59822877      0.10105507
H      -8.20368530      0.19521296     -1.83100786
H      -8.68867958      1.15698374     -0.40707601
H      -8.35585232     -0.57152293     -0.22340688
H      -6.28646755     -1.35330980     -0.51281528
H      -4.43865759     -2.68932035     -0.26439431
H      -2.03420844     -2.93243991      0.16452894
H       0.16347080      0.68643254     -0.48625564
H       2.04739234      1.85181071     -1.04063091
H       4.48152683      2.13830585     -0.91966718
H       8.50381655      1.67983313      0.20720560
H       8.95776869      0.80207158     -1.26760462
H       8.69132399     -0.10809544      0.23346440
H       4.77350415     -1.34776293      1.59105442
H       2.34918608     -1.64408879      1.49076173
H      -1.68130263      1.35094227      0.55932370
H      -4.05105935      1.60164775      0.11243930
