20
Cc1cc([N+](=O)[O-])cc([N+](=O)[O-])c1O
C       2.67168497     -0.45348440     -0.33798122
C       1.20805058     -0.12201512     -0.21976422
C       0.80783353      1.20775773     -0.01252952
C      -0.55305757      1.52572751      0.09876236
N      -0.95668665      2.92264150      0.31563660
O      -0.06222603      3.77553608      0.39233309
O      -2.16831544      3.16041479      0.40836708
C      -1.53064914      0.52768746      0.00558863
C      -1.13138938     -0.80276045     -0.20169314
N      -2.16733663     -1.83732491     -0.29717727
O      -3.34966261     -1.48754590     -0.19004441
O      -1.79323597     -3.00639080     -0.48052118
C       0.23211155     -1.13011376     -0.31443617
O       0.70523216     -2.40066811     -0.51686302
H       3.29536347      0.44153557     -0.24212099
H       2.96734283     -1.15009964      0.45312772
H       2.88103372     -0.90053948     -1.31515113
H       1.56525785      1.98823271      0.06067638
H      -2.58613747      0.78318474      0.09315777
H      -0.03521376     -3.04177551     -0.57126045
