40
CCOc1ccc(NC(=O)c2cc3ccccc3cc2O)cc1
C       7.86172350     -0.42691575     -0.18606099
C       6.43603889     -0.04395157     -0.54061562
O       5.55857856     -0.77832097      0.31162703
C       4.21724661     -0.57956660      0.14095882
C       3.62286110      0.28541950     -0.77508999
C       2.22618527      0.39399023     -0.84576401
C       1.40874401     -0.36206004     -0.00523956
N      -0.00093947     -0.30278483     -0.01030212
C      -0.80588893      0.39409172     -0.89226358
O      -0.44117970      1.00799968     -1.89140952
C      -2.27185053      0.32842084     -0.62729851
C      -2.77364955      0.20026131      0.67691582
C      -4.15797400      0.11704716      0.91063964
C      -4.67303384     -0.01988219      2.21014252
C      -6.04931219     -0.10546861      2.42722351
C      -6.92852640     -0.05335382      1.34988567
C      -6.43432102      0.08729341      0.05253183
C      -5.05336517      0.17516360     -0.18317936
C      -4.54540904      0.33087276     -1.48096030
C      -3.17169594      0.42045310     -1.69669571
O      -2.77341808      0.60036840     -2.99556505
C       2.01004745     -1.22503805      0.91691757
C       3.40252600     -1.33223111      0.98648992
H       8.07190725     -0.20022628      0.86447146
H       8.01567590     -1.50319193     -0.31688450
H       8.57758606      0.11123023     -0.81367819
H       6.30557800      1.03297825     -0.38350327
H       6.24818693     -0.29764984     -1.59033358
H       4.21061390      0.89583730     -1.45265112
H       1.81136287      1.08815935     -1.56989844
H      -0.46028949     -0.90864801      0.65671907
H      -2.09728569      0.19274266      1.52777047
H      -4.00615354     -0.06128814      3.06861371
H      -6.43481008     -0.21161188      3.43814951
H      -8.00058404     -0.11881115      1.51776132
H      -7.13775914      0.13116026     -0.77654918
H      -5.21605885      0.39384670     -2.33500941
H      -1.81890879      0.83996862     -2.98631308
H       1.41155847     -1.82990444      1.59238702
H       3.85599273     -2.00964008      1.70606020
