60
C[C@H](Oc1ccc(S(C)(=O)=O)cc1C(=O)N1Cc2ccc(C3CCOCC3)cc2C1)C(F)(F)F
C       2.77285377     -3.85191938      0.65212673
C       3.77154154     -2.72190409      0.40112342
O       2.97444701     -1.55265580      0.13706113
C       3.57379537     -0.32480180      0.11943259
C       4.70212933      0.01403158      0.87243645
C       5.25436425      1.29800535      0.78306805
C       4.67651189      2.24758968     -0.06281785
S       5.37673880      3.87591362     -0.18309570
C       6.32345727      3.80848221     -1.68176740
O       4.27450023      4.79874051     -0.37239234
O       6.29753422      4.03528872      0.92653394
C       3.52789761      1.94455963     -0.79070163
C       2.97621496      0.66339606     -0.68212277
C       1.78846395      0.37221486     -1.50805924
O       1.93692784      0.31517316     -2.72544714
N       0.57447473      0.23535069     -0.87568685
C       0.29573737      0.43377550      0.54834274
C      -1.18832360      0.28056699      0.63637717
C      -2.00370781      0.37175228      1.74883571
C      -3.37940098      0.19007625      1.57777214
C      -3.93523695     -0.08225143      0.30696128
C      -5.43178266     -0.26719658      0.12174835
C      -5.98809304     -1.44035983      0.94223722
C      -7.49761383     -1.54055389      0.76177707
O      -8.13087388     -0.31068749      1.11530355
C      -7.70943087      0.77308875      0.28694400
C      -6.21348706      1.01665499      0.43715761
C      -3.08429827     -0.16974013     -0.80776473
C      -1.72250450      0.01333628     -0.62777721
C      -0.63391021     -0.02143010     -1.65178612
C       4.69872364     -3.09944330     -0.76022755
F       5.36861208     -4.24418312     -0.47717308
F       5.63512741     -2.14974272     -0.98583611
F       4.02422895     -3.29980821     -1.91176483
H       2.11378669     -3.59838491      1.48991939
H       2.12686108     -4.00595211     -0.21938659
H       3.28034298     -4.79269775      0.88431409
H       4.34973261     -2.59908524      1.32275561
H       5.17850714     -0.68948877      1.54774030
H       6.13336511      1.54397339      1.37767201
H       5.65590724      3.59127751     -2.51734846
H       6.79678121      4.78182469     -1.82841955
H       7.08803785      3.03527820     -1.58448645
H       3.05886994      2.68400604     -1.43728875
H       0.80797478     -0.33352982      1.13419173
H       0.62146107      1.43497744      0.84571902
H      -1.59470057      0.58199080      2.73186322
H      -4.02508521      0.26804296      2.45057834
H      -5.61475004     -0.50352688     -0.93671624
H      -5.51006240     -2.38166334      0.64697065
H      -5.77570505     -1.28827968      2.00733862
H      -7.89985939     -2.32194985      1.41480441
H      -7.76071727     -1.80395328     -0.26942302
H      -8.26439354      1.66485970      0.59673960
H      -7.97743945      0.56233820     -0.75526531
H      -6.01333106      1.33317358      1.46872847
H      -5.89725479      1.83510765     -0.22039602
H      -3.47811544     -0.37268372     -1.79962897
H      -0.54932245     -1.00147084     -2.12971255
H      -0.75650958      0.76449677     -2.40268226
