22
Clc1ccccc1-c1ccccc1Cl
Cl      0.81749755      2.14786506      1.68248147
C       1.52555902      0.89642815      0.71869770
C       2.92228263      0.82486501      0.67590022
C       3.55133966     -0.15682346     -0.08862041
C       2.78659358     -1.06776566     -0.81204539
C       1.39199586     -0.99809889     -0.77097585
C       0.73583584     -0.01712762     -0.00429519
C      -0.73578837      0.01766937      0.00831200
C      -1.41255249      0.76168216     -0.97610924
C      -2.80793753      0.82229328     -1.00197782
C      -3.55291158      0.13874247     -0.04501982
C      -2.90329117     -0.60645395      0.93813360
C      -1.50573468     -0.66844057      0.96612236
Cl     -0.77168389     -1.62098175      2.21117612
H       3.52507368      1.53278754      1.23918272
H       4.63673528     -0.21153719     -0.11762166
H       3.27382038     -1.83670230     -1.40688586
H       0.81065680     -1.72262499     -1.33911284
H      -0.84676548      1.30736123     -1.72962880
H      -3.31118124      1.40703379     -1.76834222
H      -4.63885305      0.18717904     -0.06242793
H      -3.49069079     -1.13735073      1.68305684
