40
Cc1cc(-n2nc3ccc(Cl)cc3n2)c(O)c(C(C)(C)C)c1
C      -1.43996138     -3.75704266      1.02719562
C      -1.13093000     -2.33684548      0.65083116
C       0.18099048     -1.94713487      0.38347453
C       0.46468904     -0.62785742      0.00195591
N       1.81845114     -0.27363373     -0.25184307
N       2.16245580      0.99009557     -0.62587755
C       3.49312979      0.91497533     -0.76334929
C       4.40327183      1.91932983     -1.13592516
C       5.74624249      1.49596765     -1.18295086
C       6.15136592      0.16717007     -0.88021932
Cl      7.83409204     -0.21435335     -0.97846258
C       5.26101659     -0.85379326     -0.50559069
C       3.91684269     -0.44877012     -0.45359444
N       2.83209366     -1.16633516     -0.13606230
C      -0.58796388      0.30574218     -0.12171247
O      -0.35102009      1.60603777     -0.49139728
C      -1.93231355     -0.06214855      0.12726203
C      -3.10707680      0.93920787     -0.00794662
C      -4.49379195      0.32028327      0.31134481
C      -3.20212373      1.47096282     -1.45578528
C      -2.93086198      2.11727490      0.97655965
C      -2.16652838     -1.40127241      0.50819582
H      -1.66179974     -4.34169011      0.12915341
H      -2.30050193     -3.80299040      1.70289131
H      -0.59424710     -4.21742960      1.54880399
H       0.97894559     -2.68262658      0.47688403
H       4.09701678      2.93123409     -1.36671780
H       6.50572645      2.22597394     -1.46533425
H       5.57294959     -1.86339344     -0.27606810
H       0.61103668      1.73359390     -0.63680009
H      -4.73477173     -0.50549201     -0.36836684
H      -5.29342649      1.06359541      0.20415491
H      -4.54308785     -0.05308309      1.34098530
H      -4.08189042      2.11316548     -1.58276169
H      -3.28723066      0.64541845     -2.17236473
H      -2.33646577      2.07119350     -1.74874781
H      -2.82115309      1.75561487      2.00584228
H      -2.05771818      2.73576732      0.75176602
H      -3.79946068      2.78614459      0.95023208
H      -3.17599119     -1.75285658      0.70673721
