56
COC(C)(C)CCCC(C)CC=CC(C)=CC(=O)OC(C)C
C      -7.13273942      2.32903940      0.15606952
O      -5.88891943      1.70293185      0.43034240
C      -5.06639961      1.35947411     -0.69624518
C      -5.78448624      0.39211895     -1.64781534
C      -4.63337256      2.62198624     -1.45921333
C      -3.79184152      0.69629907     -0.10930801
C      -4.05673415     -0.57867818      0.70557935
C      -2.81186781     -1.10447765      1.43345858
C      -1.59638948     -1.45069528      0.54441613
C      -1.95151078     -2.50669566     -0.50817039
C      -0.43189344     -1.91720038      1.44801580
C       0.87341351     -2.07672082      0.71296179
C       1.92510543     -1.25833054      0.88409156
C       3.22623051     -1.35651939      0.21545622
C       3.37893707     -2.41578228     -0.84792251
C       4.19078443     -0.48787445      0.58363641
C       5.58198544     -0.42084683      0.07391184
O       6.14488556     -1.24849315     -0.61887454
O       6.12293410      0.73750138      0.53603180
C       7.48532656      0.99456317      0.14785680
C       8.08774514      1.91532431      1.20148828
C       7.50675801      1.65714700     -1.22479726
H      -7.63465413      2.50916720      1.11061020
H      -7.78005560      1.68514887     -0.44319775
H      -6.99304813      3.29521317     -0.33289524
H      -6.26733371     -0.42282975     -1.09872692
H      -5.09207835     -0.03615861     -2.37990174
H      -6.57760284      0.89947076     -2.20769633
H      -5.47910598      3.09822836     -1.96630664
H      -3.88272477      2.39000615     -2.22250640
H      -4.21554276      3.36747065     -0.77325688
H      -3.09638092      0.46999226     -0.92610143
H      -3.29222660      1.41887421      0.54982542
H      -4.82274558     -0.37719281      1.46433388
H      -4.46405325     -1.36471550      0.06110598
H      -2.50727265     -0.35268615      2.17367946
H      -3.10402576     -1.99527729      2.00544853
H      -1.27308665     -0.54175726      0.02176473
H      -1.09121555     -2.75110791     -1.13896039
H      -2.73743637     -2.15042153     -1.18031888
H      -2.30035655     -3.43140799     -0.03672496
H      -0.30312092     -1.20014609      2.26903932
H      -0.68343669     -2.87614032      1.91833567
H       0.93273001     -2.92469810      0.03640676
H       1.81204744     -0.43689212      1.59270226
H       4.30729318     -2.34861208     -1.41587903
H       3.34128654     -3.41438384     -0.39933984
H       2.57435039     -2.33520349     -1.58834547
H       3.98237450      0.25787041      1.34674066
H       8.06328292      0.06250177      0.13068805
H       7.52022857      2.84919172      1.28009535
H       8.04917967      1.44037723      2.18782776
H       9.13014609      2.15534696      0.97060030
H       7.06947107      0.99905900     -1.98295186
H       8.52855125      1.90298683     -1.53029843
H       6.90861084      2.57465445     -1.22630560
