18
Cc1ccc([N+](=O)[O-])cc1O
C      -2.63448670     -0.55750170      0.00269333
C      -1.14675261     -0.34722197     -0.00758019
C      -0.27871510     -1.44338186     -0.11562446
C       1.10505337     -1.25429271     -0.12572541
C       1.62357180      0.04299090     -0.02682635
N       3.07682313      0.24660930     -0.03701431
O       3.49545305      1.41000858      0.05254149
O       3.80037062     -0.75461342     -0.13439810
C       0.77218099      1.14985677      0.08180320
C      -0.60511814      0.94104508      0.09013137
O      -1.46177166      2.00041454      0.19488219
H      -2.89028325     -1.61897630     -0.08139009
H      -3.06333734     -0.18530163      0.93869096
H      -3.09670284     -0.03622365     -0.84179637
H      -0.67700656     -2.45355699     -0.19273847
H       1.75741198     -2.12112128     -0.21052761
H       1.17609724      2.15529722      0.15841526
H      -0.95278798      2.82596912      0.25446356
