22
COC(=O)COc1ccc(Cl)cc1Cl
C       4.73773013     -0.05923714      0.14183074
O       3.41481570     -0.11221173     -0.39540234
C       2.43856590      0.21339700      0.50648294
O       2.64473230      0.52516865      1.67072292
C       1.08076118      0.12217240     -0.17611027
O       0.03267826      0.45299154      0.72538048
C      -1.25436728      0.41688396      0.25766072
C      -1.61386775      0.07585055     -1.05115478
C      -2.95958348      0.06760422     -1.43514413
C      -3.95096357      0.39954805     -0.51468242
Cl     -5.60170824      0.38612266     -0.99748760
C      -3.61381655      0.74107080      0.78997940
C      -2.27015403      0.74908947      1.17261688
Cl     -1.90215737      1.18091563      2.80688625
H       4.97538480      0.95547638      0.47619579
H       4.84726964     -0.77526142      0.96233659
H       5.43678342     -0.33418657     -0.65282624
H       0.95996177     -0.91018784     -0.52407237
H       1.08879148      0.83007534     -1.01291787
H      -0.87601326     -0.18955017     -1.80153498
H      -3.22636224     -0.19920814     -2.45528493
H      -4.38848080      0.99969065      1.50652524
