23
Ic1ccc2c(c1)Sc1ccccc1N2
I       5.73020604      0.33384270     -1.20803288
C       3.80107080      0.10456039     -0.46996542
C       3.60794525     -0.33461202      0.83586756
C       2.30938152     -0.48776607      1.32685252
C       1.19329162     -0.19147775      0.52771575
C       1.40071676      0.23177700     -0.79679328
C       2.70708132      0.38494622     -1.28695508
S       0.05781903      0.60047846     -1.91461220
C      -1.38942891      0.31240435     -0.91060414
C      -2.64218071      0.53881684     -1.50148378
C      -3.81819645      0.32605414     -0.78218049
C      -3.75194799     -0.12106555      0.53272842
C      -2.50983780     -0.34851181      1.12831030
C      -1.31609823     -0.11913994      0.42446021
N      -0.09192864     -0.40379543      1.05554464
H       4.45161349     -0.56638106      1.48085204
H       2.17456438     -0.84484034      2.34484817
H       2.86203440      0.72021484     -2.30998401
H      -2.70900696      0.88018873     -2.53221738
H      -4.78224151      0.50309811     -1.25194399
H      -4.66541019     -0.29858044      1.09451190
H      -2.48064691     -0.71074978      2.15269042
H      -0.13880032     -0.50946158      2.06039072
