24
C[C@@H]1CCCC[C@H]1C
C       2.30897822     -0.14634347     -0.19061964
C       0.89015871     -0.27851956      0.37014660
C       0.26359659     -1.58989727     -0.13465355
C      -1.16053002     -1.77828509      0.37693735
C      -2.04146717     -0.58860009      0.01986332
C      -1.44081730      0.71970731      0.52275818
C      -0.00616570      0.93195871      0.00910601
C       0.53946228      2.25188292      0.56143576
H       2.29446303      0.00512243     -1.27515195
H       2.89400708     -1.04907238      0.01655358
H       2.84220144      0.69295575      0.26560974
H       0.96938413     -0.34131523      1.46424465
H       0.25739614     -1.60028435     -1.23229758
H       0.87362164     -2.44294158      0.18632903
H      -1.14396995     -1.90940016      1.46586860
H      -1.58692035     -2.69372121     -0.04853097
H      -2.16800459     -0.53877931     -1.06859562
H      -3.03932631     -0.72595547      0.45144859
H      -2.07918577      1.55180023      0.20189692
H      -1.44646933      0.72133355      1.62045307
H      -0.04903782      1.02162645     -1.08514816
H       1.49569762      2.51357904      0.09880776
H      -0.15310539      3.07512059      0.35472674
H       0.68603280      2.19802816      1.64540057
