36
CC(=O)OC1N=C(c2ccccc2Cl)c2cc(Cl)ccc2NC1=O
C       4.91764524      2.46118638     -0.83806240
C       3.93622090      1.33168163     -0.89924985
O       4.14971570      0.25895253     -1.44813368
O       2.78111715      1.68459682     -0.27944770
C       1.81802243      0.62691852     -0.18979444
N       0.48377838      1.10813048      0.18458004
C      -0.52273985      0.30530912      0.11622174
C      -1.84887206      0.88283209      0.48999984
C      -2.25029151      2.04465799     -0.18728340
C      -3.48432709      2.63127136      0.09440436
C      -4.31752973      2.06892264      1.05945614
C      -3.91280636      0.92640548      1.75315762
C      -2.67635591      0.33252661      1.47785108
Cl     -2.22629334     -1.03931280      2.42570198
C      -0.46897144     -1.12373590     -0.31908485
C      -1.51661810     -1.61014179     -1.11945670
C      -1.60480849     -2.97100620     -1.40200143
Cl     -2.89786377     -3.55888287     -2.37129169
C      -0.66672259     -3.85960034     -0.88787797
C       0.38706070     -3.37947875     -0.10751451
C       0.51753805     -2.00805289      0.15091426
N       1.63488748     -1.62071780      0.90273798
C       2.27453780     -0.40548416      0.87773248
O       3.22505329     -0.22331928      1.64356550
H       5.11424250      2.72556356      0.20409041
H       5.85905308      2.14857019     -1.29886770
H       4.52694138      3.32163000     -1.38678276
H       1.76024729      0.14014164     -1.17265807
H      -1.59875833      2.49583702     -0.93324392
H      -3.79125752      3.53135529     -0.43362458
H      -5.27738412      2.52896786      1.28382191
H      -4.56368501      0.51082859      2.51925378
H      -2.27712935     -0.93872679     -1.51058322
H      -0.74288552     -4.92425535     -1.09562182
H       1.12222471     -4.08820673      0.26881712
H       2.13701402     -2.31536415      1.44258609
