22
NC(=O)C[C@H](NC(=O)CCl)C(=O)O
N       2.52893003     -1.98948444     -0.32147979
C       1.38736776     -1.73237971      0.37313242
O       0.43445864     -2.50496778      0.36503252
C       1.34681269     -0.41560312      1.10832482
C       0.54372964      0.61859396      0.31677583
N      -0.84360472      0.17974919      0.10698061
C      -1.87734261      1.03414285     -0.17498061
O      -1.64081068      2.19527284     -0.51247702
C      -3.27153418      0.43847584     -0.18904869
Cl     -3.51111221     -0.61366094      1.22130885
C       1.29316995      1.00429388     -0.97625385
O       2.45904510      0.70056717     -1.20576739
O       0.59787933      1.80421824     -1.81505875
H       2.50476779     -2.80404170     -0.92275496
H       3.06350878     -1.19998456     -0.68454979
H       2.36763242     -0.06417880      1.29963623
H       0.88539322     -0.59727262      2.08656698
H       0.50049013      1.53794379      0.91571641
H      -1.07715895     -0.78344821      0.35769014
H      -4.01242879      1.24049624     -0.14120838
H      -3.41218264     -0.14742784     -1.10089083
H      -0.26701069      2.09869570     -1.43742818
