35
CC(=O)Nc1ccc(N/N=C2\C=C(C)C=CC2=O)cc1
C       7.08178476     -0.98894879     -0.58526934
C       5.82089948     -0.40147006     -0.00105012
O       5.87734633      0.47536584      0.85371893
N       4.68166539     -0.94707900     -0.56378976
C       3.34020346     -0.63644488     -0.26120636
C       2.95075125      0.30191739      0.69316242
C       1.59201037      0.54769627      0.93558149
C       0.59483083     -0.15493230      0.24859897
N      -0.76592240      0.17575237      0.47042540
N      -1.69431038     -0.71353921      0.00794548
C      -2.92322405     -0.29959829     -0.08215959
C      -3.41964095      1.07448545      0.22278962
C      -4.72835762      1.36425489      0.15534547
C      -5.25278225      2.74097477      0.45003853
C      -5.71064119      0.36608580     -0.21155823
C      -5.38497384     -0.88456333     -0.55361497
C      -3.96999067     -1.31070323     -0.55755374
O      -3.66627377     -2.43734478     -0.92340142
C       0.99343000     -1.06753325     -0.73293675
C       2.34922287     -1.31683242     -0.97639040
H       7.32616867     -0.46921952     -1.51534263
H       6.96125094     -2.05827941     -0.78142900
H       7.90326061     -0.86614706      0.12650892
H       4.81794355     -1.64975860     -1.27933148
H       3.67738669      0.86872776      1.26630240
H       1.32561017      1.30085082      1.67231460
H      -0.89441771      0.47664137      1.43801639
H      -2.68206362      1.82310296      0.48296017
H      -5.77022035      3.15097453     -0.42407293
H      -5.95602452      2.71322900      1.28943684
H      -4.44930010      3.43685066      0.71499754
H      -6.75808721      0.66085139     -0.21734353
H      -6.11873102     -1.62633498     -0.84202460
H       0.24395342     -1.60136657     -1.31314548
H       2.60724283     -2.04766556     -1.73769686
