7
O=P([O-])([O-])F.[Na+].[Na+]
O      -0.12134307      1.54779580     -0.06454142
P      -0.01038383      0.03118385     -0.12520100
O      -1.27591428     -0.71023730     -0.53119426
O       1.29015631     -0.51592047     -0.69561799
F       0.11748487     -0.35282189      1.41655468
Na      0.00000000      0.00000000      0.00000000
Na      0.00000000      0.00000000      0.00000000
