38
COc1ccc2c3c1CCCC3CN(C(N)=NO)C2
C      -5.06361303      1.09779114      0.26843417
O      -4.06992425      0.11932426     -0.00607472
C      -2.76255261      0.53317354     -0.02419130
C      -2.34259066      1.84624205      0.20624077
C      -0.98466884      2.17313720      0.17536950
C      -0.02266847      1.18791704     -0.06417534
C      -0.43796523     -0.13325947     -0.29207786
C      -1.80759263     -0.46616984     -0.29670175
C      -2.25046653     -1.89401703     -0.53138002
C      -1.16458525     -2.78010585     -1.14009884
C       0.15369224     -2.59139242     -0.40174457
C       0.64823030     -1.14851622     -0.56278074
C       1.83985815     -0.88290903      0.37161984
N       2.35565682      0.48834427      0.27213000
C       3.68535044      0.80016330      0.42576418
N       4.42586448     -0.15515971      1.05384215
N       4.20683274      1.92803808      0.03126896
O       5.57591380      1.99018335      0.34549920
C       1.44296265      1.54936384     -0.17253371
H      -4.93169358      1.52568852      1.26765390
H      -5.07288319      1.87772762     -0.50001977
H      -6.03760951      0.59944135      0.24696282
H      -3.04801496      2.64525865      0.40775306
H      -0.68393569      3.20584317      0.33873259
H      -2.56030928     -2.31548468      0.43322246
H      -3.11905357     -1.91488770     -1.20022278
H      -1.47784519     -3.82910404     -1.09272049
H      -1.03111525     -2.53266054     -2.20092268
H       0.01453226     -2.83870402      0.65885316
H       0.90446537     -3.28633019     -0.79599267
H       0.96902024     -1.00681049     -1.60480862
H       1.55489363     -1.06431024      1.41629868
H       2.62514249     -1.60684332      0.12046319
H       4.00361761     -0.43777163      1.92769608
H       5.34910614      0.23753634      1.22254989
H       5.83590809      2.83317596     -0.06948856
H       1.65572288      1.79917430     -1.21953777
H       1.62231739      2.44691242      0.43299056
