41
COc1cncc(-c2cc(-c3cn4cccc(C(N)=O)c4n3)ccn2)c1
C       5.36365141      0.68309000      3.50147178
O       4.21169308      0.73439913      2.66741701
C       4.31899460      0.13974728      1.44287958
C       5.42288587     -0.52383267      0.92909087
N       5.45981267     -1.08615110     -0.29982447
C       4.33319495     -0.97833029     -1.05045913
C       3.15330422     -0.34938739     -0.64688452
C       1.97524852     -0.29516122     -1.53154762
C       0.66923782     -0.17137757     -1.05995181
C      -0.40098422     -0.12175010     -1.96258954
C      -1.75805277      0.00965334     -1.45281554
C      -2.91869061      0.05889046     -2.19514670
N      -3.94024719      0.18649105     -1.28708981
C      -5.31036653      0.27998043     -1.51422943
C      -6.14026355      0.40043958     -0.46572455
C      -5.57659181      0.42891196      0.87584979
C      -4.24473975      0.33778826      1.09449254
C      -3.75923594      0.37551695      2.50762854
N      -2.41420634      0.27795609      2.68410655
O      -4.51249060      0.48717745      3.46947643
C      -3.35979168      0.20971798     -0.02355700
N      -2.04492642      0.10418376     -0.10725256
C      -0.12258339     -0.20229375     -3.32518027
C       1.19629332     -0.33266182     -3.71806624
N       2.23596130     -0.38375822     -2.85973459
C       3.18103681      0.22128582      0.63607653
H       6.21016003      1.19981919      3.03717228
H       5.12500936      1.20411528      4.43363181
H       5.62173159     -0.35085211      3.75335650
H       6.34664168     -0.63669010      1.48533542
H       4.40907807     -1.44125354     -2.03283879
H       0.47016216     -0.12838490      0.00632764
H      -3.11521890      0.01651528     -3.25606410
H      -5.65357963      0.25125534     -2.54074344
H      -7.21612019      0.47700886     -0.58531279
H      -6.27624179      0.52707587      1.70349429
H      -2.03927751      0.29662259      3.62086418
H      -1.78374844      0.18298502      1.89159932
H      -0.89831272     -0.16904619     -4.08036138
H       1.46288169     -0.40182291     -4.76920743
H       2.31869083      0.75739530      1.02431067
