29
Nc1ccc(S(=O)(=O)Nc2ccc(Cl)cc2)cc1
N      -3.97217651      1.48968836      0.83405263
C      -2.92803905      0.64527756      0.44496954
C      -2.78079434     -0.61124796      1.04189492
C      -1.81749603     -1.51363604      0.58285143
C      -1.01534288     -1.16540635     -0.50571997
S       0.20373244     -2.31563213     -1.10090495
O      -0.24445923     -3.64700244     -0.74947666
O       0.52504564     -1.96840072     -2.46837370
N       1.53671036     -1.99733138     -0.11120293
C       2.04068324     -0.67176346     -0.02190947
C       2.59241604     -0.03831754     -1.13615135
C       3.05112301      1.27737610     -1.03626753
C       2.95550594      1.95291865      0.17891505
Cl      3.51414021      3.57473731      0.30248211
C       2.40864809      1.32235270      1.29577312
C       1.95106346      0.00600053      1.19565582
C      -1.20197874      0.05279164     -1.16146524
C      -2.16781379      0.94555433     -0.69003807
H      -4.26590303      1.37641315      1.79893461
H      -3.83703686      2.46384984      0.58190831
H      -3.42490128     -0.90076890      1.86868951
H      -1.71733961     -2.48356889      1.06396061
H       1.52491203     -2.56623038      0.73350704
H       2.67760439     -0.56201018     -2.08583456
H       3.48050438      1.76477428     -1.90775164
H       2.33325125      1.84990657      2.24305282
H       1.51749763     -0.47202342      2.06956209
H      -0.61373800      0.31109634     -2.03906572
H      -2.32581878      1.88060244     -1.22204783
