22
O=S(=O)(O)c1ccc2ccccc2c1
O       3.37916463     -2.18434611     -0.05106747
S       3.25939955     -0.79676573     -0.43418879
O       4.18637670      0.21377345      0.02904684
O       3.33455328     -0.71366343     -2.04428783
C       1.61823248     -0.26772765     -0.03861107
C       1.40847335      0.60008948      1.03249626
C       0.11215515      1.03078939      1.31817264
C      -0.97591389      0.60336017      0.53769182
C      -2.28408337      1.03008072      0.81521327
C      -3.35654988      0.59847672      0.03292741
C      -3.13577936     -0.26489961     -1.03614277
C      -1.84177420     -0.69951926     -1.32689365
C      -0.75190127     -0.27492986     -0.55067105
C       0.55340054     -0.70380650     -0.83233034
H       4.06618754     -0.10051007     -2.26954516
H       2.23896457      0.94298679      1.64570776
H      -0.04573595      1.70568649      2.15730783
H      -2.47911029      1.70385457      1.64675117
H      -4.36452709      0.93620819      0.26006655
H      -3.97120146     -0.60220141     -1.64441788
H      -1.69174580     -1.37566114     -2.16597555
H       0.74141478     -1.38127518     -1.66338462
