45
NS(=O)(=O)c1ccc(Nc2ccnc(NS(=O)(=O)c3cccc(C(F)(F)F)c3)n2)cc1
N       7.04269659      1.58307090     -0.18616066
S       5.76144101      2.66377642     -0.28025081
O       5.86118466      3.29168222     -1.57657916
O       5.78820995      3.41670554      0.95173484
C       4.36600712      1.57736759     -0.26697758
C       3.87058388      1.07388929     -1.46950104
C       2.74836385      0.24106118     -1.45437310
C       2.10589006     -0.09227120     -0.25103388
N       0.99230146     -0.94998807     -0.31114150
C       0.32451252     -1.66476127      0.68830255
C       0.99162396     -2.28876180      1.72330073
C       0.21582554     -2.96659374      2.63489874
N      -1.12102286     -3.04994255      2.54807365
C      -1.65273730     -2.47311228      1.46989920
N      -3.04188352     -2.43999873      1.49182301
S      -3.83068567     -2.62169236      0.04125079
O      -5.23152827     -2.80448546      0.36362888
O      -3.13529361     -3.59235615     -0.77671935
C      -3.70441207     -1.01845863     -0.71619125
C      -3.02778042     -0.87013431     -1.92957886
C      -2.93762722      0.39125138     -2.51521866
C      -3.52562159      1.49572759     -1.89216082
C      -4.21135406      1.35435688     -0.67400065
C      -4.86153990      2.53997690     -0.00285381
F      -6.22052466      2.48668713     -0.06214675
F      -4.50840821      3.73627573     -0.55028279
F      -4.54646299      2.62826184      1.31945048
C      -4.30361645      0.08044446     -0.09123068
N      -1.00799154     -1.75084970      0.55422623
C       2.61398406      0.43568022      0.94272994
C       3.73547794      1.27251574      0.93977371
H       7.61363284      1.65055617     -1.02945938
H       7.56441615      1.74003906      0.67643378
H       4.34759942      1.31954193     -2.41566250
H       2.37908809     -0.16059122     -2.39613825
H       0.30515016     -0.63865391     -0.99421297
H       2.06931207     -2.26743149      1.81235118
H       0.66290027     -3.47555820      3.48385002
H      -3.44407767     -2.98519443      2.24574164
H      -2.57141805     -1.72821492     -2.41821027
H      -2.41444998      0.51660619     -3.46107495
H      -3.44858940      2.47406049     -2.36638093
H      -4.83968316     -0.05196220      0.84822359
H       2.12634555      0.23641272      1.89273173
H       4.10016144      1.68506504      1.87820807
