44
CCCCSP(=O)(SCCCC)SCCCC
C       2.79963853      4.84054180      0.75386252
C       1.64486682      4.07387664      0.12806163
C       2.09146090      2.86234935     -0.69657930
C       2.86976068      1.78270400      0.05611228
S       1.96976897      1.03303763      1.44059754
P       0.41248760     -0.04926395      0.55815606
O       0.84148489     -0.52184314     -0.80511912
S      -1.28378427      1.15914723      0.36714408
C      -2.36095204      0.20081116     -0.73352838
C      -3.70432485      0.88572342     -0.98360282
C      -4.61076465      0.92729599      0.24986787
C      -5.96757292      1.53067370     -0.08071118
S      -0.04876098     -1.70544519      1.75244151
C       1.34534471     -2.83831534      1.51373938
C       1.09243025     -3.77507290      0.33530665
C       2.26929339     -4.73244892      0.13727919
C       2.03135196     -5.67358742     -1.03289838
H       2.42759355      5.74775562      1.24074747
H       3.53026543      5.13901423     -0.00448695
H       3.31257240      4.24411791      1.51392139
H       1.09571633      4.75439764     -0.53414817
H       0.94035365      3.77323366      0.91065528
H       2.72246641      3.21939862     -1.52090849
H       1.21055733      2.41617966     -1.17259459
H       3.80466919      2.19567053      0.44769397
H       3.15046982      0.98538368     -0.63993624
H      -1.83869565      0.07411151     -1.68728757
H      -2.51600367     -0.79469057     -0.30583348
H      -4.22126372      0.33057389     -1.77692470
H      -3.54700506      1.90071311     -1.36983414
H      -4.15010769      1.51891192      1.04811243
H      -4.75522834     -0.08738194      0.63878346
H      -6.48219330      0.94352072     -0.84802497
H      -5.86147197      2.55705583     -0.44622331
H      -6.60063096      1.55136553      0.81191682
H       2.26211595     -2.25973592      1.36444107
H       1.46685210     -3.41983901      2.43352942
H       0.94041475     -3.20076651     -0.58591631
H       0.17935922     -4.35857439      0.50905277
H       2.42649190     -5.32296867      1.04740207
H       3.18757994     -4.16113753     -0.04209263
H       1.90247975     -5.11512945     -1.96555823
H       1.13665311     -6.28305209     -0.87052066
H       2.88426057     -6.34831200     -1.15609528
