47
CCN(CC)C(CNS(=O)(=O)c1ccc(Cl)cc1)c1ccccc1
C      -0.34473190     -2.84119252     -0.29988464
C       0.02518726     -1.52665143     -0.97711113
N      -1.01783330     -0.49023995     -1.01008386
C      -2.22379106     -0.91607185     -1.75550257
C      -1.95435560     -1.25380619     -3.21774659
C      -1.38617505      0.06208886      0.33221665
C      -0.21604473      0.30664142      1.34826102
N       0.82907145      1.20453714      0.81388237
S       2.26441283      1.34054919      1.66415731
O       2.87609220      2.58453681      1.25024895
O       2.00528880      1.04187022      3.05564990
C       3.22552491      0.01770155      0.96948367
C       3.85681313      0.20579939     -0.26616109
C       4.62047552     -0.82751167     -0.81143547
C       4.75579406     -2.03058026     -0.11825767
Cl      5.69652716     -3.30339250     -0.79485012
C       4.13443642     -2.21286967      1.11844703
C       3.36642412     -1.18468613      1.66926016
C      -2.18164522      1.37403845      0.22257394
C      -1.88557819      2.33562751     -0.75918743
C      -2.59957110      3.53278963     -0.82439537
C      -3.61575015      3.78941887      0.09388247
C      -3.91822623      2.85094166      1.07642478
C      -3.20759341      1.65015502      1.14163429
H      -1.12840553     -3.36842015     -0.84838116
H       0.52852143     -3.49920373     -0.26746361
H      -0.68012572     -2.69332202      0.72844104
H       0.35466511     -1.74337841     -1.99969334
H       0.92872217     -1.13131060     -0.50705715
H      -2.71299852     -1.76666512     -1.26721828
H      -2.96435934     -0.11010646     -1.76808294
H      -1.37415871     -2.17333591     -3.32568296
H      -2.90192546     -1.40374904     -3.74654969
H      -1.41876560     -0.44104080     -3.71681140
H      -2.04650815     -0.67584110      0.81193864
H      -0.61925194      0.75727666      2.26435378
H       0.23030178     -0.65176857      1.62936887
H       0.51651273      2.09620970      0.43158685
H       3.75293041      1.14647020     -0.80240307
H       5.10414080     -0.69050061     -1.77687723
H       4.24752002     -3.15066229      1.65947321
H       2.88134497     -1.33228448      2.63037450
H      -1.09962888      2.14634746     -1.48973410
H      -2.36370071      4.26268068     -1.59456961
H      -4.17111901      4.72284459      0.04312735
H      -4.70879235      3.05543920      1.79348001
H      -3.45967143      0.93462729      1.91936838
