45
CC1(C)SC2C(N=CN3CCCCCC3)C(=O)N2C1C(=O)O
C      -4.61534968      0.16043444     -1.26656744
C      -4.37281123     -0.33451691      0.16450832
C      -5.71775078     -0.51760549      0.88068080
S      -3.56208044     -2.01227523      0.06083574
C      -1.88472820     -1.39629016      0.53790438
C      -0.94163757     -1.11766609     -0.65804270
N       0.47052301     -1.36987316     -0.31939999
C       1.29981821     -0.78553904     -1.11872689
N       2.66891146     -0.84006484     -1.02997635
C       3.29199045     -1.56070754      0.08851276
C       4.78929989     -1.30330407      0.26208028
C       5.17315933      0.13451695      0.62696857
C       4.24114662      1.24076639      0.13882849
C       3.95092624      1.24357867     -1.36150998
C       3.50864085     -0.09185113     -1.95615165
C      -1.41965689      0.34980917     -0.47264222
O      -1.40731088      1.35920387     -1.14107572
N      -2.03506127      0.06264983      0.72015965
C      -3.39450306      0.51109981      1.00314639
C      -3.62585527      2.02318904      0.98550352
O      -4.70797233      2.58214917      0.88425192
O      -2.51979293      2.75146774      1.23784763
H      -5.29116886     -0.51212971     -1.80907871
H      -5.08810827      1.14775623     -1.27127463
H      -3.69746871      0.23533951     -1.85528941
H      -5.59060891     -0.91261152      1.89524096
H      -6.37700140     -1.20349456      0.33557966
H      -6.24960905      0.43584128      0.96788318
H      -1.44535552     -1.89102580      1.40908765
H      -1.23749155     -1.56691900     -1.61236959
H       0.95030165     -0.17070220     -1.96977384
H       2.78450266     -1.30144117      1.02603729
H       3.14175817     -2.63503300     -0.07138130
H       5.33498975     -1.60948217     -0.63784314
H       5.16632435     -1.96426614      1.05339047
H       6.18981803      0.32726935      0.26201714
H       5.23089128      0.20816091      1.72094537
H       3.29449596      1.18553535      0.69205536
H       4.67886517      2.21022760      0.40892363
H       4.83551375      1.59413326     -1.90701997
H       3.16621798      1.98766955     -1.54726138
H       2.97408017      0.09844871     -2.89559777
H       4.37750869     -0.68561415     -2.25767191
H      -3.53006403      0.24869273      2.06386396
H      -2.80829689      3.68447351      1.17367537
