24
Cn1c(=O)c2c(ncn2C)n(C)c1=O
C      -2.02979229      2.42219386     -0.31124196
N      -1.23477760      1.21845726     -0.16691707
C       0.15587884      1.35002781     -0.11113373
O       0.75638546      2.41853597     -0.17598351
C       0.82110700      0.10226363      0.03077519
C       0.16550616     -1.08909739      0.10375956
N       1.02595794     -2.13659982      0.23751815
C       2.22115578     -1.58018053      0.24648456
N       2.14515187     -0.21795132      0.12304850
C       3.25748044      0.69749410      0.09644066
N      -1.20476965     -1.16709092      0.04425505
C      -1.86388935     -2.45767492      0.12579219
C      -1.94985451      0.00436309     -0.09481400
O      -3.18313150     -0.00957876     -0.15331514
H      -2.71243519      2.50188275      0.54119851
H      -2.62685736      2.34651976     -1.22600578
H      -1.41865555      3.32668661     -0.36116611
H       3.16035822     -2.11127663      0.33865845
H       4.19202830      0.13850840      0.19084350
H       3.15732304      1.39145797      0.93467299
H       3.24402177      1.23408107     -0.85547577
H      -1.52031767     -3.08727126     -0.70111942
H      -2.95136140     -2.36494967      0.06497719
H      -1.60651275     -2.93080105      1.07874799
