36
CCCCCCCCOC(=O)C(C)O
C      -5.82935663     -1.22117687      0.24969982
C      -5.48803253      0.24145547      0.48892111
C      -4.06831648      0.45940819      1.01645229
C      -2.98164587      0.06942247      0.01198595
C      -1.58737612      0.40569613      0.54606168
C      -0.49881027      0.01390764     -0.45446494
C       0.89226422      0.34988989      0.07833754
C       1.98383546     -0.03770124     -0.91306827
O       3.25009978      0.31027360     -0.33684145
C       4.32290269     -0.00302559     -1.11207199
O       4.26724989     -0.50676348     -2.22924324
C       5.63751631      0.41797855     -0.44960859
C       5.77206377     -0.14381397      0.95541990
O       6.76402836     -0.03021595     -1.20710850
H      -5.66312120     -1.81660252      1.15294773
H      -6.88284188     -1.31946619     -0.03150909
H      -5.23014008     -1.64590557     -0.56088156
H      -6.19614909      0.64862648      1.22055391
H      -5.63224336      0.80630909     -0.43940669
H      -3.93150710     -0.10421757      1.94740947
H      -3.95715327      1.52082666      1.27078469
H      -3.03446387     -1.00425970     -0.20037904
H      -3.14911438      0.59749538     -0.93445706
H      -1.52326100      1.48037538      0.75572439
H      -1.42114605     -0.11954132      1.49450113
H      -0.66551080      0.53878074     -1.40297114
H      -0.56201080     -1.06079381     -0.66415881
H       1.06877023     -0.16453009      1.03131476
H       0.96628288      1.42230499      0.29826680
H       1.84948818      0.50772422     -1.85448497
H       1.95311329     -1.11666402     -1.10500725
H       5.67029977      1.51227359     -0.43458387
H       5.71549806     -1.23822194      0.94318576
H       6.74417225      0.12052553      1.38522368
H       4.98575487      0.22913344      1.61882666
H       6.45886078     -0.11950759     -2.13188252
