18
COCCC(=O)OC
C      -3.42856521     -0.52898030      0.61883659
O      -2.38469197     -0.24715861     -0.30497628
C      -1.11154833     -0.19597856      0.34210862
C      -0.05469834      0.10786258     -0.70550798
C       1.31303305      0.17517597     -0.08512512
O       1.56110772      0.01030556      1.10114157
O       2.23887817      0.44872455     -1.04758201
C       3.57853816      0.53443480     -0.55986705
H      -3.26956786     -1.50337035      1.09068949
H      -3.48756169      0.25435797      1.38058552
H      -4.37448431     -0.55600193      0.07137183
H      -1.12439947      0.58483048      1.11209125
H      -0.90804632     -1.15966358      0.82439383
H      -0.27770705      1.06512216     -1.18973197
H      -0.06238481     -0.67107049     -1.47606402
H       3.66965237      1.34533828      0.16955221
H       4.23394966      0.75538372     -1.40682896
H       3.88849623     -0.41931225     -0.12144692
