25
c1ccc2c(c1)CC1COCOC21
C       3.04782271      0.28040023      0.67114266
C       2.51935284      1.55622702      0.41393194
C       1.25503383      1.70084497     -0.16013315
C       0.53460202      0.55543775     -0.45340859
C       1.06284356     -0.71888995     -0.19738337
C       2.32065012     -0.87081478      0.35899807
C       0.10928600     -1.79261584     -0.63857911
C      -1.21283442     -1.00532484     -0.72440120
C      -1.96869961     -1.03967617      0.60343107
O      -2.95545802     -0.01844852      0.63368080
C      -2.33047529      1.25125742      0.51626086
O      -1.75349504      1.43302456     -0.76391581
C      -0.81471516      0.43270472     -1.10864398
H       4.03786026      0.18973725      1.11208071
H       3.10536569      2.43948510      0.65694706
H       0.84963529      2.68496901     -0.37448349
H       2.73736096     -1.85464911      0.54946637
H       0.05856047     -2.62256909      0.07230068
H       0.40883064     -2.16502026     -1.62409901
H      -1.87756801     -1.41953307     -1.49260177
H      -1.30723523     -0.92577110      1.47146127
H      -2.47502651     -2.00429481      0.71864934
H      -1.59132944      1.40649501      1.31197979
H      -3.10475546      2.01410695      0.64008454
H      -0.65561220      0.49291755     -2.19276568
