30
OC1(c2ccc(Cl)cc2)CCNCC1.[Cl-].[H+]
O      -0.65965684      1.52136197     -0.86345479
C      -0.41532385      0.27548836     -0.25626770
C       1.02962757      0.04251774     -0.15435206
C       1.59069932     -0.94865748      0.61930442
C       2.96874144     -1.14030168      0.74029883
C       3.81051395     -0.30050828      0.05785036
Cl      5.56128574     -0.51819524      0.19420613
C       3.29655791      0.71010471     -0.73528583
C       1.92790118      0.87070838     -0.83238887
C      -1.15188400     -0.75882943     -1.02982239
C      -2.64505470     -0.52526524     -0.98882483
N      -3.01788815      0.49736257     -0.03652350
C      -2.42063989      0.28445493      1.27252882
C      -0.94589515      0.42335929      1.15685712
Cl      0.00000000      0.00000000      0.00000000
H       0.00000000      0.00000000      0.00000000
H      -0.12689737      2.16637317     -0.31351838
H       0.92276790     -1.59765102      1.14619650
H       3.37419072     -1.92398596      1.35045925
H       3.98938703      1.34700113     -1.26505739
H       1.51851564      1.65199859     -1.44483092
H      -0.78802962     -0.69288337     -2.10027213
H      -0.97964326     -1.80066576     -0.72267403
H      -3.20774694     -1.47328327     -0.85221426
H      -2.94927604     -0.14177565     -1.98325855
H      -4.04982662      0.54247500      0.01082837
H      -2.74400228     -0.68397279      1.73888624
H      -2.81367139      1.07992083      1.94250029
H      -0.58692096      1.41515180      1.49390872
H      -0.48783132     -0.32230332      1.85492060
