36
CCOP(=S)(OCC)SCSC(C)(C)C
C       4.73321766      2.80561494      0.72723306
C       3.74613823      1.86893393      1.39309951
O       3.32449552      0.90742540      0.43920985
P       1.94183102      0.09270797      0.70002681
S       1.96884632     -0.97734313      2.33208483
O       1.92214965     -0.82870292     -0.64176206
C       2.99163233     -1.72881183     -0.88553466
C       2.91588381     -2.18119969     -2.32979525
S       0.36862634      1.45625190      0.42239615
C      -1.05207859      0.35022423      0.28684543
S      -2.55887708      1.31563751     -0.02174025
C      -3.86648817      0.00824880      0.01633556
C      -3.98914501     -0.58880846      1.42325443
C      -3.58029372     -1.09243580     -1.01157987
C      -5.18574553      0.70758052     -0.34987850
H       5.09379781      3.55896617      1.43314000
H       5.59088721      2.24831678      0.33615312
H       4.26795373      3.31305894     -0.12432803
H       4.22797344      1.35388509      2.22951422
H       2.89171859      2.43637733      1.77321819
H       2.89592656     -2.59325408     -0.22212150
H       3.95360887     -1.24231919     -0.69949665
H       1.95380296     -2.66296966     -2.53341618
H       2.99220525     -1.32360380     -3.00643151
H       3.71956662     -2.88588244     -2.56087125
H      -0.87397953     -0.33819539     -0.54171481
H      -1.14338048     -0.20975978      1.21858714
H      -4.83654305     -1.28305998      1.47468551
H      -4.15926923      0.18582618      2.17987071
H      -3.09981415     -1.15817309      1.71121154
H      -4.42059621     -1.79481276     -1.06870240
H      -3.43267890     -0.68111356     -2.01668975
H      -2.69702427     -1.68359046     -0.74891777
H      -5.14754092      1.14933794     -1.35285435
H      -6.01858357     -0.00587185     -0.34425760
H      -5.43822352      1.50151423      0.36322630
