27
CC1(C)CC(=O)CC(C)(C#N)C1
C       2.42034712     -0.51597427     -0.85264281
C       1.21030824     -0.08597265      0.00367128
C       1.51514066     -0.48460698      1.46032700
C       1.05193745      1.43920300     -0.09961950
C      -0.27125908      1.89342554      0.47099004
O      -0.34460375      2.81890655      1.27594372
C      -1.50825974      1.23627186     -0.09222162
C      -1.42096592     -0.29329816     -0.02178978
C      -2.53936859     -0.88950069     -0.90320811
C      -1.66232676     -0.75866080      1.36325248
N      -1.86237193     -1.14023594      2.44021165
C      -0.05406305     -0.80232881     -0.54816684
H       3.34049121     -0.02590824     -0.51443750
H       2.27635011     -0.25348931     -1.90686594
H       2.57758239     -1.59912498     -0.79728751
H       0.79371108     -0.06840193      2.16801015
H       2.50021793     -0.11453533      1.76889021
H       1.52204067     -1.57369178      1.57932836
H       1.86281053      1.95368204      0.42944138
H       1.08229151      1.77074873     -1.14476880
H      -2.38349935      1.60967183      0.45396720
H      -1.60120758      1.57842446     -1.13057741
H      -2.43166848     -0.57963268     -1.94895461
H      -3.53067909     -0.56730720     -0.56174993
H      -2.52514882     -1.98588222     -0.87739091
H      -0.05283534     -0.67787138     -1.64123534
H       0.03502860     -1.88391066     -0.37311686
