51
C=CC(=O)OCCn1c(=O)n(CCOC(=O)C=C)c(=O)n(CCOC(=O)C=C)c1=O
C       1.12077990      7.87696731      1.51650089
C       0.26381107      6.88208994      1.25460226
C       0.60559954      5.48292017      1.58500217
O       1.64463093      5.11290111      2.10247135
O      -0.43095385      4.69838818      1.20305814
C      -0.27386384      3.29375724      1.46821126
C       0.61176725      2.62330947      0.41367404
N       0.50013125      1.16632217      0.44001279
C       1.28462996      0.46600970      1.32761031
O       2.07327954      1.03089133      2.08845989
N       1.11601114     -0.90231339      1.35162080
C       1.99023545     -1.67774720      2.23332082
C       3.39435889     -1.87656098      1.64605363
O       3.39407187     -2.87700642      0.61160955
C       3.17611962     -2.42959754     -0.64911069
O       2.97919465     -1.27408797     -0.98874032
C       3.19420432     -3.59378289     -1.55791775
C       3.03543287     -3.43661888     -2.87810362
C       0.24706854     -1.57432167      0.51954278
O       0.12542871     -2.80030548      0.55705016
N      -0.49844731     -0.80025221     -0.34161456
C      -1.45700582     -1.46677475     -1.22063232
C      -2.79576022     -1.73368018     -0.52674424
O      -3.82821465     -2.03900384     -1.47959739
C      -3.82121828     -3.30054888     -1.96941131
O      -3.01507672     -4.17519675     -1.69463676
C      -4.92992584     -3.52484543     -2.92136999
C      -5.83685258     -2.60649777     -3.28021912
C      -0.48470986      0.57607182     -0.31927731
O      -1.33270493      1.24376792     -0.91579712
H       0.87075066      8.90432579      1.27430028
H       2.08742947      7.68895373      1.97705831
H      -0.69935626      7.06932524      0.79594345
H       0.10784267      3.12950352      2.48343908
H      -1.28152915      2.86409488      1.44443293
H       1.65844786      2.91274122      0.56330290
H       0.33953934      2.99239167     -0.58296689
H       2.07616930     -1.14449339      3.18739503
H       1.53683071     -2.65255604      2.44357796
H       4.05239814     -2.26012968      2.43340014
H       3.83951887     -0.93996425      1.29064977
H       3.32971489     -4.57320972     -1.11561372
H       2.89396940     -2.45534540     -3.32282672
H       3.04087903     -4.29423718     -3.54243606
H      -1.02587207     -2.40823153     -1.58066623
H      -1.62221211     -0.85358621     -2.11517890
H      -3.12915847     -0.83708001      0.00766970
H      -2.71373103     -2.52889091      0.22433149
H      -4.96669753     -4.52772216     -3.33375967
H      -5.82609968     -1.59490282     -2.88588871
H      -6.62085565     -2.85524083     -3.98832793
