42
CCCc1c(O)n2c(N(C)C)nc3ccc(C)cc3n2c1=O
C       5.70617989     -0.86982298     -0.31474802
C       4.22540788     -0.62129204     -0.55709634
C       3.41027957     -0.81629854      0.72225755
C       1.96322508     -0.58753187      0.49607055
C       0.92867357     -1.43677443      0.44058545
O       1.02281351     -2.79041317      0.58565661
N      -0.27344067     -0.80312212      0.24677009
C      -1.57902937     -1.24245474      0.12414564
N      -1.72145436     -2.63526318      0.08945886
C      -2.83274828     -3.16962100      0.89380708
C      -1.73547660     -3.20048472     -1.27321438
N      -2.62860903     -0.46985856      0.03134983
C      -2.38965420      0.91998963      0.04125614
C      -3.48504584      1.78140303     -0.03897075
C      -3.30220347      3.16587186     -0.03951029
C      -2.01461378      3.70925497      0.02886553
C      -1.81718804      5.19651222      0.06191364
C      -0.91161219      2.84820200      0.12408397
C      -1.09297932      1.46054723      0.12551531
N      -0.02331034      0.56240076      0.21640669
C       1.34208225      0.76489667      0.35941869
O       1.98222763      1.80311639      0.39331167
H       6.27112673     -0.72581349     -1.24104258
H       6.10211260     -0.17823654      0.43576366
H       5.88052517     -1.89279064      0.03376611
H       4.09423584      0.39744104     -0.94099200
H       3.87048145     -1.30644930     -1.33670536
H       3.76873267     -0.13406918      1.50267844
H       3.57158055     -1.83192462      1.10429581
H       0.08745717     -3.08651680      0.58024932
H      -3.80460810     -2.91460878      0.45701235
H      -2.78758249     -2.77268689      1.91376956
H      -2.75624397     -4.25992768      0.96228171
H      -0.86277092     -2.85937857     -1.84033022
H      -2.64075931     -2.90198987     -1.81322083
H      -1.69425848     -4.29384294     -1.22973922
H      -4.48724510      1.36599123     -0.09942852
H      -4.17264269      3.81586783     -0.09530468
H      -2.61888864      5.70982656     -0.47936892
H      -0.87259891      5.47513367     -0.41696215
H      -1.80785277      5.54946450      1.09768709
H       0.08567529      3.27525303      0.19630897
