40
CC(C)[C@@H]1CC[C@@H](C)C[C@H]1OC(=O)[C@H](C)O
C      -1.67474537     -0.76745287      3.08522916
C      -0.83969027     -1.07731319      1.83726857
C      -1.21795577     -2.46015515      1.29994769
C      -0.93241501      0.06573219      0.78074997
C      -2.35429369      0.28973945      0.23462732
C      -2.40845767      1.46039003     -0.74730415
C      -1.41747992      1.28167675     -1.90174149
C      -1.45600761      2.48825893     -2.83764120
C      -0.00107954      1.05732504     -1.36555517
C       0.05898309     -0.12778205     -0.39288432
O       1.39210254     -0.21215623      0.14876545
C       2.30309714     -0.89955465     -0.59049918
O       2.07633283     -1.47011536     -1.65216081
C       3.66690608     -0.94182617      0.10389213
C       4.16207878      0.44748112      0.46792420
O       4.65362751     -1.55046803     -0.73244495
H      -2.74883288     -0.81098733      2.87988216
H      -1.43813090      0.22683084      3.47794507
H      -1.46283636     -1.49462669      3.87693422
H       0.20384739     -1.13619796      2.17374814
H      -1.09451771     -3.21925887      2.08061037
H      -0.57936656     -2.75552170      0.46280947
H      -2.26028111     -2.49750113      0.96914880
H      -0.62990260      0.98384470      1.30696951
H      -3.05274567      0.49664096      1.05213424
H      -2.71284903     -0.61293244     -0.27366869
H      -3.42765392      1.55205349     -1.14164246
H      -2.19257454      2.39214897     -0.20876182
H      -1.71376256      0.39656116     -2.48027884
H      -2.46250409      2.63186363     -3.24452547
H      -1.16720279      3.40709998     -2.31606794
H      -0.77096999      2.34776813     -3.68038029
H       0.36607718      1.96175016     -0.86160118
H       0.69144482      0.88650628     -2.19911837
H      -0.19376430     -1.04978740     -0.93089470
H       3.56875163     -1.56564066      0.99834744
H       3.49505080      0.94244895      1.18039103
H       4.23536717      1.07973152     -0.42426516
H       5.16431429      0.39732658      0.90673687
H       4.17203861     -2.14390097     -1.34262562
