30
CC1(C)[C@H]2CC=C(CCO)[C@@H]1C2
C      -1.71117057     -1.69162340      0.37187920
C      -1.55979147     -0.25629916     -0.14885042
C      -2.71835150     -0.00003979     -1.13344642
C      -1.32248743      0.89297944      0.92640550
C      -0.35949302      0.53533061      2.07841536
C       0.88657411     -0.10950734      1.50498519
C       1.02322836     -0.29151606      0.17488989
C       2.19952851     -0.95375854     -0.48936230
C       3.08043106      0.03546813     -1.25470988
O       3.78250657      0.89470572     -0.36151040
C      -0.12547322      0.20450887     -0.67116094
C      -0.54459984      1.64622182     -0.20384716
H      -2.67889674     -1.81872937      0.87011264
H      -1.66241513     -2.40736632     -0.45648152
H      -0.94447277     -1.98553313      1.09160814
H      -2.67933554     -0.71402798     -1.96382464
H      -3.68342866     -0.12082430     -0.62866149
H      -2.70915940      1.00068826     -1.57170039
H      -2.22677742      1.39693000      1.28239292
H      -0.08120410      1.43956247      2.63063652
H      -0.84485029     -0.15167395      2.77944243
H       1.65379860     -0.43846592      2.20050970
H       2.80786024     -1.46647619      0.26594955
H       1.82759651     -1.72105306     -1.17841728
H       3.82906791     -0.51114063     -1.83671663
H       2.50101205      0.65261903     -1.94894970
H       3.11499251      1.31570275      0.20914389
H       0.04405261      0.09340582     -1.74630027
H      -1.15911212      2.21309773     -0.91033386
H       0.26037017      2.31681446      0.11790239
