41
CCc1cccc(C)c1N(C(=O)CCl)C(C)COC
C      -2.50056864     -1.55462058      2.02536418
C      -1.22415394     -0.74682105      1.81476250
C      -1.36337653      0.34114975      0.76725264
C      -2.29559993      1.36558125      1.01782817
C      -2.46114984      2.42506978      0.13106632
C      -1.69731333      2.48351907     -1.02842771
C      -0.75570758      1.48444523     -1.31772170
C       0.02205745      1.59764653     -2.60131899
C      -0.57035352      0.41865519     -0.40499246
N       0.43148609     -0.55949099     -0.68122968
C       0.11757424     -1.88772107     -0.97688023
O       0.96182228     -2.78884521     -0.93421927
C      -1.29594684     -2.20579443     -1.44481083
Cl     -1.28048553     -2.35447230     -3.21847093
C       1.83924230     -0.14772741     -0.41764234
C       2.76856206     -0.49734452     -1.58979767
C       2.42114228     -0.72164019      0.89789964
O       1.80706613     -0.19089958      2.07811408
C       2.21698427      1.13202353      2.39247484
H      -2.32280733     -2.35122871      2.75516495
H      -2.83897715     -2.01826245      1.09398663
H      -3.31737702     -0.93394993      2.40685666
H      -0.93106432     -0.27812217      2.76256152
H      -0.42459479     -1.44802144      1.56664756
H      -2.89455013      1.35119662      1.92667931
H      -3.18581291      3.20638868      0.34607541
H      -1.84456265      3.31608993     -1.71362330
H       1.01903120      2.00289438     -2.40623514
H       0.10716579      0.62586421     -3.09627053
H      -0.48020818      2.26435738     -3.31104878
H      -2.04266620     -1.45873595     -1.18460611
H      -1.60542447     -3.16329617     -1.01569259
H       1.84469635      0.94559972     -0.34300559
H       3.73929868     -0.00546300     -1.46285096
H       2.34958366     -0.16680637     -2.54456545
H       2.95833408     -1.57205195     -1.66431175
H       3.50177520     -0.54070420      0.95394152
H       2.28561275     -1.80641808      0.93906712
H       3.30627216      1.19227241      2.47480889
H       1.78193565      1.40127514      3.35894375
H       1.85305820      1.84440893      1.64822631
