24
O=S(CCCl)CCS(=O)CCCl
O      -1.88377365      0.51527261      1.66220876
S      -1.83835954     -0.50990098      0.56813491
C      -3.21796108     -0.15480053     -0.56932676
C      -4.55104083     -0.52760425      0.05610529
Cl     -4.77341403     -2.29819293      0.10241751
C      -0.51647064     -0.01907592     -0.58536091
C       0.81137964      0.05515869      0.15081983
S       2.16641966      0.31565794     -1.04094347
O       1.83478580      1.54716410     -1.82975092
C       3.45027738      0.76969035      0.17165473
C       4.00064252     -0.45897791      0.86987801
Cl      5.29916644     -0.00291734      1.99735514
H      -3.19847035      0.91918834     -0.78153867
H      -3.05182226     -0.69604234     -1.50638314
H      -5.37142359     -0.12600356     -0.54597702
H      -4.65525630     -0.14758529      1.07695983
H      -0.77139998      0.95388132     -1.01859422
H      -0.48987468     -0.76151750     -1.38992505
H       1.01735641     -0.87333640      0.69215143
H       0.80433401      0.88297100      0.86730862
H       4.24521119      1.26866837     -0.39357682
H       3.03659630      1.49606562      0.87827659
H       3.23296566     -0.97579241      1.45227229
H       4.42013194     -1.17197095      0.15297331
