34
CCOC(=O)C(CC)(CC)C(=O)NC(N)=O
C      -3.71410265     -0.56603781     -1.05584944
C      -3.26232665     -0.25513769      0.35849502
O      -2.03532781      0.49091061      0.33146863
C      -0.88714437     -0.23856523      0.27138796
O      -0.84580349     -1.46242186      0.22150106
C       0.34622133      0.65503521      0.22240915
C       0.30810341      1.64170775      1.42944157
C       0.28483551      0.96038033      2.79607846
C       0.31185686      1.49587052     -1.08698521
C       0.26205045      0.69535384     -2.38503206
C       1.68868311     -0.10669728      0.25935706
O       2.71610449      0.43810532      0.67595995
N       1.71040864     -1.36041264     -0.32803105
C       2.74846607     -2.24784367     -0.30172742
N       3.99312539     -1.72507397     -0.22874164
O       2.56504001     -3.45852010     -0.35066876
H      -2.98484949     -1.19901705     -1.57119852
H      -3.80582200      0.35476618     -1.64122604
H      -4.67972975     -1.07936307     -1.05066644
H      -3.16004492     -1.16672002      0.95819585
H      -4.00817655      0.37483285      0.85399740
H      -0.57405010      2.29132343      1.36067122
H       1.17589186      2.31318987      1.39454148
H       0.27937496      1.71710358      3.58749117
H      -0.61019672      0.34398638      2.92265466
H       1.16352940      0.32711893      2.94845565
H      -0.56046412      2.16244734     -1.07439081
H       1.19441766      2.14805656     -1.12638812
H       0.17284779      1.37872451     -3.23624984
H       1.17349033      0.11026214     -2.53394730
H      -0.59727327      0.01941621     -2.41323780
H       0.81970904     -1.85044910     -0.38428576
H       4.73240843     -2.38779145     -0.04066675
H       4.07874716     -0.81454062      0.21718669
