47
CCCN(CCc1cccs1)C1CCc2c(O)cccc2C1
C       2.12679702     -3.50702384      2.34378782
C       1.32742526     -2.93207719      1.18300694
C       1.54744302     -1.41862463      1.04776299
N       0.87567343     -0.86502741     -0.14336705
C       1.53549877      0.37367268     -0.60293790
C       2.81776519      0.09070639     -1.40928691
C       3.47129563      1.36829011     -1.86286253
C       4.28971732      2.21233771     -1.13788461
C       4.72198879      3.33642432     -1.90237454
C       4.22952676      3.30462061     -3.18736428
S       3.23983127      1.93710998     -3.46243137
C      -0.59230530     -0.72006745      0.05191083
C      -1.31672647     -0.67922509     -1.30556401
C      -2.82744201     -0.81895641     -1.10740629
C      -3.38746789      0.05514911     -0.01069896
C      -4.77233774      0.24891450      0.09156326
O      -5.58698780     -0.34599553     -0.83382610
C      -5.32474854      1.02841107      1.10727583
C      -4.48908598      1.62359217      2.04918543
C      -3.10999949      1.43550864      1.97207358
C      -2.54900020      0.64179758      0.95751718
C      -1.04526609      0.49136024      0.89894924
H       3.20151903     -3.35324533      2.19396807
H       1.94783934     -4.58440403      2.42529064
H       1.83919358     -3.04182795      3.29461108
H       0.27163031     -3.16781407      1.34477417
H       1.63322455     -3.43494676      0.25841834
H       2.63057066     -1.26178082      0.97917397
H       1.22897114     -0.90176126      1.96057588
H       1.74926673      1.03794676      0.24471839
H       0.87019878      0.93934094     -1.26656832
H       3.54595847     -0.47278960     -0.81267557
H       2.57466520     -0.54259645     -2.27398012
H       4.56575294      2.03281507     -0.10426952
H       5.36836447      4.12371783     -1.53038544
H       4.39919089      4.02088650     -3.98074068
H      -0.96097949     -1.62642749      0.54943994
H      -0.96802095     -1.48935285     -1.95776410
H      -1.11255812      0.26176134     -1.82866717
H      -3.06205419     -1.86338221     -0.86236542
H      -3.31781853     -0.58693621     -2.06069984
H      -6.50592524     -0.09337638     -0.64438273
H      -6.39685580      1.17901780      1.18217142
H      -4.91024275      2.23189492      2.84481433
H      -2.46980227      1.91276269      2.70789715
H      -0.65463465      0.39102873      1.91922304
H      -0.64904903      1.42857129      0.48439387
