12
O=c1cc[nH]cc1
O      -2.02705029      1.65290657     -0.37660953
C      -1.08661385      0.88605168     -0.20188417
C      -1.29815231     -0.58520754     -0.12440959
C      -0.22235348     -1.35922987      0.06813357
N       1.04319385     -0.85064598      0.19381810
C       1.27994508      0.49684364      0.12835912
C       0.30479457      1.39521598     -0.06014878
H      -2.30557939     -0.96085359     -0.22653479
H      -0.29470763     -2.44020908      0.13567830
H       1.82247783     -1.48609327      0.33860193
H       2.31926974      0.78933122      0.24046943
H       0.46477588      2.46189024     -0.11547358
