29
[NH3+][C@H](CC(=O)[O-])c1cccc2ccccc12
N      -1.73869985     -0.79382484      1.36845825
C      -1.55718769     -0.00428760      0.11399045
C      -2.73274353     -0.28661498     -0.81868933
C      -3.93256893      0.30979865     -0.10270583
O      -4.01195792     -0.05902414      1.11365328
O      -4.63947172      1.09509145     -0.76786341
C      -0.17224784     -0.30700287     -0.44798528
C      -0.02294650     -1.30007721     -1.43788535
C       1.23125708     -1.64353781     -1.92988665
C       2.36560415     -1.01352975     -1.43444268
C       2.26667185     -0.02937909     -0.44382493
C       3.43674503      0.57968178      0.03812061
C       3.38331761      1.56240870      1.02225401
C       2.15554327      1.95133407      1.53464158
C       0.98141270      1.35463248      1.06524860
C       0.99540780      0.34612037      0.06700153
H      -1.71250871     -1.79942603      1.20411419
H      -1.11119983     -0.51741436      2.12105141
H      -2.72815595     -0.57893554      1.67593694
H      -1.60631192      1.05044386      0.40739558
H      -2.59045785      0.19425496     -1.79314440
H      -2.90937651     -1.35615831     -0.97806276
H      -0.88233755     -1.82364583     -1.85246104
H       1.32612023     -2.40334800     -2.70252646
H       3.33697877     -1.29888155     -1.83491999
H       4.41022652      0.29306414     -0.35635426
H       4.29877522      2.02733063      1.37931137
H       2.10625068      2.72883851      2.29374710
H       0.05386138      1.72208830      1.49582749
