41
CCOC(=O)C(CC(=O)O)=C(c1ccccc1)c1ccccc1
C       3.06377863     -3.12002621      0.32117565
C       2.88935341     -1.88936063      1.18973106
O       1.94993557     -1.02337641      0.54793655
C       1.69048600      0.12061928      1.22238304
O       2.22524274      0.49239675      2.25584479
C       0.71230593      0.95246058      0.47113293
C       1.23693264      2.34569961      0.21957544
C       2.30086973      2.33539751     -0.85367405
O       2.57203728      1.43903135     -1.63374417
O       2.96598788      3.50790217     -0.91368939
C      -0.51066863      0.47429598      0.12394225
C      -1.39890303      1.32495461     -0.70500156
C      -1.13697660      1.50477731     -2.07075140
C      -1.97722675      2.30195053     -2.84900109
C      -3.08097482      2.92492898     -2.26884501
C      -3.35237667      2.74443284     -0.91225648
C      -2.51772649      1.94155594     -0.13288345
C      -0.96671030     -0.86683493      0.57501923
C      -1.18207336     -1.88625585     -0.36046039
C      -1.61620428     -3.14587354      0.05704815
C      -1.84319431     -3.39374759      1.40953276
C      -1.64110367     -2.38262381      2.34735669
C      -1.20855165     -1.12171626      1.93316507
H       3.76328912     -3.82432563      0.77960696
H       3.44068633     -2.83998090     -0.66882002
H       2.10343498     -3.62395923      0.16442684
H       3.85125038     -1.37596988      1.29967617
H       2.51069317     -2.18098358      2.17510316
H       0.45317916      3.04383851     -0.08943381
H       1.67399333      2.74840536      1.14126843
H       3.61977535      3.37975504     -1.63322908
H      -0.28066018      1.01903851     -2.53538966
H      -1.77199262      2.43424065     -3.90815919
H      -3.73560403      3.54516469     -2.87552434
H      -4.21847245      3.22295031     -0.46312833
H      -2.74250359      1.80340594      0.92218112
H      -1.00322935     -1.70790705     -1.41797110
H      -1.77515335     -3.93348499     -0.67473058
H      -2.18091438     -4.37526104      1.73232646
H      -1.82162664     -2.57458845      3.40202041
H      -1.06038447     -0.34092645      2.67623995
