21
CCC(CC)CO
C      -0.76560296      2.18836478      0.45936975
C      -0.85708680      0.99841732     -0.48496276
C      -0.51905135     -0.35083808      0.17838753
C       0.88718740     -0.40742401      0.81537905
C       2.04354336     -0.18021084     -0.14843531
C      -0.75008510     -1.48743745     -0.83176738
O      -0.51970390     -2.75785212     -0.23742531
H      -1.13005493      3.09180248     -0.04032699
H      -1.37467911      2.02794179      1.35445489
H       0.26607642      2.37802682      0.76920006
H      -1.88284358      0.95339839     -0.87272848
H      -0.20926250      1.17414221     -1.35160880
H      -1.22801745     -0.50585942      1.00400867
H       0.95261111      0.33246706      1.62173979
H       1.02672346     -1.38099197      1.30121613
H       2.99418765     -0.24282784      0.39152447
H       1.99340678      0.80876663     -0.61247272
H       2.06347909     -0.93564494     -0.93888683
H      -1.78143364     -1.47329781     -1.20098606
H      -0.09037694     -1.39382554     -1.69985127
H      -1.11901703     -2.83711750      0.52417156
