55
CN(C)C(=O)Oc1cc(OC(=O)N(C)C)cc(C(O)CNC(C)(C)C)c1
C      -5.02689931     -3.52972795      0.53429852
N      -4.60862181     -2.96897341     -0.73869763
C      -4.99085465     -3.69468279     -1.93411929
C      -3.60830890     -2.00586748     -0.83469387
O      -3.12677139     -1.63935524     -1.90288525
O      -3.22085975     -1.51841094      0.41131715
C      -2.20761376     -0.55411440      0.38197998
C      -2.48012823      0.74113926     -0.04699207
C      -1.45421590      1.67967330     -0.01011619
O      -1.74418744      2.95531638     -0.52649440
C      -1.39130710      4.08502939      0.21152539
O      -0.86920029      4.04921014      1.32145230
N      -1.70326883      5.26814160     -0.44975025
C      -1.54514536      6.52645615      0.25354525
C      -2.46020351      5.29852995     -1.68933417
C      -0.17334717      1.33406083      0.42982653
C       0.09028695      0.03131532      0.88851700
C       1.48125683     -0.32815302      1.36002561
O       1.44627646     -1.44642730      2.25606022
C       2.41951135     -0.67438715      0.17557388
N       3.73348851     -1.10285798      0.70030899
C       4.68896962     -1.60729690     -0.30618822
C       5.98805814     -1.92704215      0.45991282
C       4.18620937     -2.90447422     -0.96199128
C       5.00507832     -0.56047321     -1.38666966
C      -0.94748326     -0.91276525      0.86317455
H      -4.90696428     -2.81550076      1.35283566
H      -4.41866776     -4.41533217      0.74108432
H      -6.08159068     -3.81332868      0.47442908
H      -6.06851556     -3.88003142     -1.91378071
H      -4.74875998     -3.13480281     -2.84111158
H      -4.45412657     -4.64755486     -1.95189875
H      -3.46537997      1.00995529     -0.41096451
H      -0.87196491      6.43196257      1.10998373
H      -1.13600912      7.27309896     -0.43406441
H      -2.52719342      6.85427940      0.60878784
H      -2.09134560      6.11742141     -2.31470803
H      -3.51421822      5.46788968     -1.44933871
H      -2.36730969      4.36639227     -2.25119727
H       0.61796990      2.07959628      0.42483484
H       1.89381304      0.51212594      1.93255975
H       2.34729856     -1.82531139      2.19633097
H       2.52217583      0.19619899     -0.48114967
H       1.96420512     -1.48979282     -0.39668830
H       4.15649962     -0.31053912      1.18956924
H       5.81656355     -2.67387908      1.24448459
H       6.40527082     -1.03126827      0.93602740
H       6.75524428     -2.32760791     -0.21292123
H       3.90303996     -3.64826168     -0.20763776
H       3.31978819     -2.73089903     -1.60825917
H       4.96599967     -3.35409243     -1.58885033
H       5.33819863      0.38432805     -0.94307072
H       4.13551704     -0.34937455     -2.01844565
H       5.80437115     -0.91243340     -2.04876465
H      -0.77462848     -1.92710142      1.21470162
