26
CCc1nc2cncnc2nc1CC
C      -2.10299349      2.18035857     -0.69813292
C      -1.59546643      1.44416620      0.53250196
C      -0.35587350      0.64670121      0.23070225
N       0.81749124      1.30981727      0.37154308
C       1.94819884      0.61489490      0.08749538
C       3.20502775      1.16674817      0.19233892
N       4.36140449      0.52364943     -0.07594743
C       4.22104285     -0.74474042     -0.47008672
N       3.06245397     -1.39552302     -0.61210785
C       1.94648170     -0.71935158     -0.33610679
N       0.77840353     -1.35218735     -0.47306292
C      -0.37419826     -0.67996003     -0.20050417
C      -1.63768300     -1.48170135     -0.36527676
C      -2.00516974     -2.21943207      0.91331053
H      -2.36619085      1.48502778     -1.50188034
H      -2.99488365      2.76380926     -0.44868124
H      -1.34543184      2.86925475     -1.08737251
H      -2.38270790      0.80744631      0.94823584
H      -1.36133244      2.17735512      1.31450812
H       3.31599142      2.19870840      0.51351237
H       5.12725941     -1.29701972     -0.69537384
H      -2.46764334     -0.84740145     -0.69214133
H      -1.48857508     -2.21409722     -1.16859052
H      -2.18087063     -1.52490191      1.74126944
H      -2.91725096     -2.80558175      0.76282163
H      -1.20748410     -2.90603951      1.21702581
