20
CCCC(C)O[N+](=O)[O-]
C      -2.93938305      0.11218331      0.11021057
C      -1.48847087      0.44418877      0.42214067
C      -0.53180052     -0.55220236     -0.24031444
C       0.93973526     -0.25245979      0.09648068
C       1.83735663     -1.31831498     -0.53105410
O       1.25727942      1.02349093     -0.46401669
N       2.30306734      1.70721836      0.20195536
O       2.84527510      1.13852380      1.15004181
O       2.53144508      2.81240789     -0.28630886
H      -3.20040695     -0.88671143      0.47406476
H      -3.12625004      0.14538688     -0.96788455
H      -3.60551194      0.83410473      0.59293788
H      -1.27478281      1.46218815      0.07728205
H      -1.34305272      0.43201615      1.50854609
H      -0.78380255     -1.56892009      0.08519371
H      -0.67788861     -0.50737460     -1.32725033
H       1.03714671     -0.26647271      1.18942153
H       2.89174234     -1.12883393     -0.30627083
H       1.74497270     -1.31348838     -1.62288306
H       1.58332948     -2.31693071     -0.16229228
