42
N#CCCN(CCC#N)c1ccc(N=Nc2c(Cl)cc([N+](=O)[O-])cc2Cl)cc1
N      -5.91954107     -3.99940594     -0.44388597
C      -5.24645201     -3.14165824     -0.04756455
C      -4.40171303     -2.04652896      0.43688334
C      -4.34423098     -0.92705693     -0.60362156
N      -3.51839335      0.20156762     -0.13159536
C      -4.25422543      1.32897969      0.47354472
C      -4.46873392      2.45667619     -0.53702525
C      -5.21997398      3.55212748      0.08211912
N      -5.81649687      4.41043828      0.58535388
C      -2.13027806      0.19557536     -0.23498232
C      -1.42743814     -0.84835332     -0.86462534
C      -0.02744819     -0.85974986     -0.96970307
C       0.73170509      0.17772539     -0.43861250
N       2.12997716      0.18358336     -0.56320099
N       2.64484100     -0.39421623      0.42064426
C       4.04937182     -0.38662894      0.29452709
C       4.72500681     -1.44530179     -0.34147855
Cl      3.85951589     -2.78928555     -1.00538882
C       6.11902461     -1.45317154     -0.45603240
C       6.85672424     -0.39314150      0.08086185
N       8.32026788     -0.39405268     -0.03498700
O       8.84949731     -1.35781088     -0.60369037
O       8.93369448      0.56866696      0.44373175
C       6.21447104      0.66456040      0.73259341
C       4.81980741      0.65807167      0.83941947
Cl      4.07461654      1.98008119      1.67216568
C       0.06740162      1.23162572      0.17983600
C      -1.33297081      1.23430438      0.28035908
H      -3.39788840     -2.42592339      0.65591889
H      -4.80260292     -1.65833677      1.38054789
H      -5.36465250     -0.57055594     -0.80318092
H      -3.99795336     -1.29453290     -1.57743256
H      -3.75747582      1.68714545      1.38361580
H      -5.23264279      0.97518355      0.82825712
H      -5.01573500      2.07739400     -1.40817267
H      -3.50983453      2.83301211     -0.90922531
H      -1.94258894     -1.69663670     -1.30391618
H       0.46903725     -1.68851412     -1.46829494
H       6.61262563     -2.28368329     -0.95837495
H       6.78272561      1.48948404      1.15967432
H       0.63921938      2.05828936      0.59417323
H      -1.77026065      2.09005325      0.78491598
