15
N#Cc1cccc(N=C=S)c1
N      -3.21714428      2.29072900      0.66428208
C      -2.37722858      1.52647903      0.42571264
C      -1.33899926      0.58252772      0.13337804
C      -1.59625631     -0.79003466      0.21173746
C      -0.58885848     -1.70752679     -0.08678315
C       0.67868606     -1.25373974     -0.45607564
C       0.95757493      0.11866510     -0.51525653
N       2.22308670      0.57648601     -0.91758599
C       2.97439816      0.65288948     -0.01710104
S       4.13657112      0.77393333      1.35229092
C      -0.06620717      1.03296936     -0.23557470
H      -2.58300148     -1.15234266      0.49626149
H      -0.79149119     -2.77520899     -0.03902009
H       1.45373566     -1.97597365     -0.70423690
H       0.13513411      2.10014747     -0.31202857
