53
CCCCNC(=O)Oc1cc(/C=C(/C#N)C(=O)N(CC)CC)cc([N+](=O)[O-])c1O
C       5.51865412     -2.19575489      3.53184108
C       4.30425479     -2.99489667      3.08748657
C       3.86742365     -2.61048482      1.67503830
C       2.64383477     -3.41156928      1.23578981
N       2.24027145     -3.07435469     -0.10950514
C       1.48768478     -1.96829532     -0.39406857
O       0.98814543     -1.23095162      0.44631402
O       1.37581831     -1.83504165     -1.76765817
C       0.74649133     -0.63993007     -2.12758734
C      -0.64170000     -0.63714568     -2.28441000
C      -1.29874841      0.54789790     -2.62637900
C      -2.76210790      0.53741954     -2.74997650
C      -3.62914688      1.30538981     -2.06133966
C      -5.02779842      1.22786138     -2.30110534
N      -6.16647863      1.11712034     -2.49668482
C      -3.16957763      2.30738722     -1.06697611
O      -2.84146873      3.42297285     -1.47087791
N      -3.12542939      1.93775640      0.27241398
C      -2.67408548      2.94580236      1.23446925
C      -3.81463955      3.83871642      1.69926128
C      -3.58544626      0.65624303      0.82242271
C      -2.43320076     -0.26296170      1.19479854
C      -0.54248004      1.70195826     -2.87616238
C       0.85871342      1.67648789     -2.74088570
N       1.61340758      2.89675237     -3.02631778
O       1.04107442      3.80930935     -3.63599267
O       2.79768472      2.93257747     -2.65359671
C       1.51672234      0.50220687     -2.35824160
O       2.87194682      0.37890548     -2.20039753
H       6.36948262     -2.37177589      2.86584654
H       5.81414166     -2.48679592      4.54472446
H       5.30133430     -1.12272301      3.53626137
H       4.54362299     -4.06387193      3.12512687
H       3.48218048     -2.82113701      3.79159497
H       4.69123611     -2.78364863      0.97115072
H       3.64356487     -1.53713978      1.63654649
H       1.80357777     -3.22591096      1.91428524
H       2.86210724     -4.48452354      1.24563255
H       2.69674260     -3.51187610     -0.89792692
H      -1.19899674     -1.55305838     -2.10266258
H      -3.14406421     -0.18511949     -3.47075657
H      -1.89829553      3.56591934      0.77088053
H      -2.21200937      2.44643890      2.09191579
H      -4.60082929      3.25373253      2.18703268
H      -3.44747293      4.58075906      2.41499823
H      -4.26935348      4.37111053      0.85764003
H      -4.19997422      0.86457625      1.70543564
H      -4.23033462      0.13943554      0.10841440
H      -1.79363751      0.18261635      1.96254158
H      -2.81553900     -1.21160740      1.58386921
H      -1.80721303     -0.47920462      0.32698592
H      -1.04555892      2.62256901     -3.17430781
H       3.29546831      1.26231565     -2.24690196
