56
CCC(C)n1ncn(-c2ccc(N3CCN(c4ccc(O)cc4)CC3)cc2)c1=O
C      -6.79421797      0.09667959      2.88518343
C      -7.41584466      0.24385767      1.50191495
C      -6.44986208      0.87637917      0.48683015
C      -7.17218940      1.17781888     -0.82772322
N      -5.27967224      0.05029899      0.23327025
N      -5.35876320     -1.29616941     -0.01592104
C      -4.16172107     -1.60475517     -0.40444802
N      -3.27600016     -0.58594429     -0.47705732
C      -1.92493230     -0.64847234     -0.89597718
C      -1.32640754     -1.86153969     -1.25223858
C       0.01448302     -1.91782936     -1.66987040
C       0.82747813     -0.77892561     -1.74426511
N       2.14478227     -0.88427795     -2.18487611
C       2.92887956      0.32090406     -2.54596863
C       3.67445867      0.92014516     -1.32927172
N       4.51049228     -0.10402394     -0.65524580
C       5.39761463      0.32672957      0.34545952
C       5.35338678      1.60411664      0.92498428
C       6.26940379      1.99370286      1.90984910
C       7.25345927      1.11030047      2.32477365
O       8.12480606      1.52940830      3.28423200
C       7.34071511     -0.15573859      1.76582378
C       6.42093427     -0.53531905      0.78151586
C       3.72766157     -1.31642579     -0.28603553
C       3.00005424     -1.90259879     -1.52119961
C       0.21201992      0.43071833     -1.41088497
C      -1.12696956      0.49542954     -0.98316256
C      -4.00128973      0.53339382     -0.10079924
O      -3.66509815      1.70795628     -0.06387715
H      -6.46235433      1.06663837      3.26694479
H      -5.93520454     -0.58115939      2.87002815
H      -7.53139257     -0.30978472      3.58592735
H      -8.30943557      0.87387239      1.59369539
H      -7.75572442     -0.73879664      1.15429810
H      -6.09227830      1.83216082      0.89067190
H      -7.53594290      0.25967775     -1.30209327
H      -8.02928299      1.83883491     -0.66055776
H      -6.49944080      1.67091750     -1.53772997
H      -3.86269252     -2.62138582     -0.67762767
H      -1.86800402     -2.80092182     -1.23698769
H       0.40631921     -2.88338741     -1.97956903
H       3.67388823      0.01798951     -3.29382937
H       2.30822826      1.07790173     -3.03869751
H       2.94796529      1.33155513     -0.61889851
H       4.30520594      1.74000179     -1.69430098
H       4.59627010      2.32717362      0.63820594
H       6.20957891      2.98616424      2.34746679
H       8.73980097      0.80341323      3.48138582
H       8.11360673     -0.85548192      2.06615946
H       6.52943035     -1.51741196      0.32763076
H       4.37105255     -2.10521215      0.11993901
H       2.99389924     -1.05341927      0.48756593
H       3.75042981     -2.23700401     -2.24951897
H       2.44649249     -2.79876648     -1.22297806
H       0.75295728      1.37084934     -1.45638649
H      -1.51103392      1.47976190     -0.73207752
