40
CC1(C)CCC2OC23C(C)(C)C2CCC13C2
C      -2.66858327     -0.04633905     -1.07733001
C      -1.84757569      0.30748130      0.18574924
C      -2.69711149     -0.11682554      1.40437174
C      -1.65687172      1.84756649      0.25825967
C      -0.87231361      2.42419907     -0.92247077
C       0.44780601      1.75296950     -1.08633864
O       0.44703255      0.59577073     -1.94033662
C       0.64318890      0.35597115     -0.54765267
C       1.99029770     -0.17512159     -0.07807373
C       2.84227307     -0.75942229     -1.20968043
C       2.81582582      0.90026345      0.65118221
C       1.49253111     -1.25384067      0.95476910
C       0.83957526     -2.46020368      0.25704690
C      -0.45474406     -1.87237474     -0.33197899
C      -0.46374589     -0.40540925      0.18529457
C       0.23554768     -0.59127179      1.55701556
H      -3.57829777      0.56272971     -1.13610813
H      -2.10593111      0.11386829     -2.00115810
H      -2.98726776     -1.09455786     -1.06811706
H      -2.24082541      0.20204668      2.34764842
H      -2.82994652     -1.20323724      1.44245614
H      -3.69546550      0.33467960      1.36381095
H      -1.13472501      2.10544214      1.18948246
H      -2.63288700      2.34755075      0.30536370
H      -1.45257562      2.35592742     -1.84929883
H      -0.70983312      3.49361759     -0.74271374
H       1.27504451      2.43849065     -1.19607864
H       3.23352093      0.03687125     -1.85386788
H       2.27220533     -1.42691264     -1.86332402
H       3.69634475     -1.31658767     -0.81002679
H       3.18914980      1.65585277     -0.04916646
H       3.68566834      0.45374641      1.14583822
H       2.23493037      1.43326013      1.41012009
H       2.24984307     -1.54536112      1.68692054
H       1.46885946     -2.93627803     -0.49827348
H       0.58861223     -3.23119577      0.99617180
H      -1.31367482     -2.44497671      0.03413147
H      -0.44624297     -1.92753212     -1.42581310
H      -0.30171245     -1.26094009      2.23807622
H       0.44207390      0.35008278      2.07409910
