27
O=C1C=CC(=NNc2ccc([N+](=O)[O-])cc2)C=C1
O       6.17444256      0.39023629     -1.12563744
C       4.97608172      0.19945788     -0.96969574
C       4.20904780     -0.65876067     -1.88916962
C       2.90520632     -0.88263802     -1.70366294
C       2.15506981     -0.29301709     -0.56533131
N       0.89567392     -0.59392736     -0.45625660
N       0.22346414     -0.09360633      0.61929236
C      -1.19103435     -0.17618131      0.58146553
C      -1.89795370     -0.30721781     -0.62376607
C      -3.29658879     -0.31130015     -0.64653077
C      -4.00281506     -0.15557518      0.55031829
N      -5.47064511     -0.15626953      0.53685296
O      -6.05663470     -0.01423227      1.61998326
O      -6.03872849     -0.29931206     -0.55527193
C      -3.31895303      0.01302201      1.75996821
C      -1.91961377      0.01445634      1.76605011
C       2.93564823      0.60091127      0.33490796
C       4.23984087      0.82370537      0.14436150
H       4.75749025     -1.09414134     -2.71546752
H       2.33912696     -1.51586571     -2.37806523
H       0.57609509     -0.38965099      1.53089446
H      -1.35442039     -0.41048551     -1.56072920
H      -3.80867927     -0.42869886     -1.59893951
H      -3.85312815      0.15154571      2.69758360
H      -1.40058268      0.16747482      2.70939622
H       2.40940013      1.08694196      1.14643804
H       4.81318968      1.47698065      0.79101138
