30
CCOC(=O)c1[nH]c(C=O)c(CC)c1C
C       4.53793665      0.65745551      0.78794876
C       3.85716711      0.32931732     -0.52656287
O       2.45905220      0.15903903     -0.27246029
C       1.72155660     -0.13993092     -1.37502053
O       2.17459429     -0.26368483     -2.50615869
C       0.32238297     -0.29916653     -1.03885253
N      -0.59107905     -0.62735534     -2.01278611
C      -1.85531109     -0.73394700     -1.49498549
C      -2.99223234     -1.06024529     -2.32169578
O      -2.91727478     -1.27614784     -3.52818109
C      -1.76948642     -0.47549537     -0.13434577
C      -2.90349294     -0.48844631      0.84930449
C      -3.54039169      0.88281223      1.01400571
C      -0.38741932     -0.18525609      0.15525621
C       0.17742755      0.17203762      1.49113551
H       4.11619975      1.56956922      1.22310355
H       4.37823552     -0.14525935      1.51548622
H       5.61317562      0.79762563      0.64644218
H       4.27460390     -0.59645795     -0.93811452
H       4.00779506      1.15071682     -1.23600875
H      -0.35946609     -0.77009491     -2.99008223
H      -3.96905301     -1.10788335     -1.81237851
H      -3.66792053     -1.20565463      0.52826736
H      -2.54959768     -0.84749661      1.82239045
H      -4.36146162      0.83550751      1.73622453
H      -2.81277719      1.61794972      1.37397659
H      -3.94399129      1.24821515      0.06361448
H       0.69967316      1.13302614      1.44208613
H      -0.59959402      0.26639730      2.25440386
H       0.88074869     -0.59714685      1.82587674
