30
CCC(O)CNCC(O)CC
C       4.40571506      0.97771021      0.39604577
C       3.01012305      0.79927588     -0.18867748
C       2.53763431     -0.65846197     -0.13127313
O       3.43544009     -1.46383124     -0.90208584
C       1.10469660     -0.83225315     -0.68123107
N       0.09854086     -0.17232396      0.15121721
C      -1.25262376     -0.34179548     -0.40732777
C      -2.30172048      0.14571652      0.61353365
O      -2.14410618     -0.62260871      1.81831646
C      -3.74312847     -0.02955563      0.12478872
C      -4.08531064      0.81946404     -1.08823561
H       4.69522232      2.03291455      0.36377427
H       4.43721321      0.64922116      1.43975540
H       5.15124105      0.40827298     -0.16755093
H       2.31623010      1.44700168      0.35841143
H       3.03072706      1.14096173     -1.23069318
H       2.58393518     -1.01958080      0.90355152
H       3.18556331     -2.39261060     -0.75898459
H       0.88645746     -1.90559149     -0.75301242
H       1.06820394     -0.44187228     -1.70639734
H       0.08776975     -0.58661450      1.08821748
H      -1.33102853      0.22294901     -1.34146792
H      -1.43139511     -1.40325966     -0.61903462
H      -2.11469609      1.19681923      0.86555932
H      -2.71938582     -0.21627118      2.48939026
H      -3.93600694     -1.08661568     -0.09683591
H      -4.42895363      0.22767909      0.94199537
H      -5.15047416      0.72579948     -1.32329278
H      -3.52395685      0.50298584     -1.97197084
H      -3.87192671      1.87647493     -0.90082706
