13
N#CS.N=C(N)N
N       1.72132136     -0.25661288      0.88760455
C       0.66801471      0.11792912      0.58123481
S      -0.87531064      0.63976375      0.14169016
N      -0.85343784      0.86372129      0.89252139
C      -0.18817422      0.10361789      0.11032738
N      -0.79560896     -0.67354014     -0.79910153
N       1.14776230     -0.01700867      0.08410564
H      -1.51402543     -0.50107999      0.43069185
H      -0.21303351      1.38672469      1.49202616
H      -0.37863895     -0.59397197     -1.71830036
H      -1.78295648     -0.43652274     -0.83977657
H       1.61958268      0.32949862      0.90964212
H       1.44450498     -0.96251897     -0.13144423
