56
CN(C)C1C(O)=C(C(N)=O)C(=O)C2(O)C(O)=C3C(=O)c4c(O)ccc(Cl)c4C(C)(O)C3CC12
C       3.61385788     -2.44443762      0.51009663
N       3.19021784     -1.62581858      1.66007192
C       2.38578952     -2.44484322      2.57461689
C       2.47454553     -0.37658935      1.28981859
C       3.50476150      0.64471816      0.80297551
O       4.70966108      0.57634734      1.48908194
C       3.30846218      1.52156411     -0.20342542
C       4.30838589      2.46874161     -0.73243847
N       5.31474743      2.81494097      0.10437778
O       4.23947953      2.91436928     -1.86807124
C       1.96428403      1.45744547     -0.83416576
O       1.31819332      2.47788462     -1.03124602
C       1.39530557      0.03214043     -1.00282246
O       2.30696004     -0.81783356     -1.69715064
C       0.10483523      0.05429617     -1.79784242
O       0.27990706     -0.15976186     -3.15941614
C      -1.09723338      0.24168631     -1.21774507
C      -2.32605542      0.31778083     -2.04739783
O      -2.28324432      0.18728269     -3.27871982
C      -3.62258975      0.58978413     -1.37235654
C      -4.69786367      1.04739716     -2.16094506
O      -4.60552945      1.26186775     -3.51235747
C      -5.93799694      1.30789452     -1.59518935
C      -6.12884786      1.07129592     -0.24185621
C      -5.07543643      0.59134330      0.55294695
Cl     -5.47933126      0.25843918      2.19646089
C      -3.78545407      0.37135241      0.01961329
C      -2.57689400     -0.14166614      0.82235923
C      -2.56690540     -1.68352245      0.78971919
O      -2.59532716      0.25441274      2.19756085
C      -1.26204372      0.48606337      0.25507000
C      -0.01279762      0.16721384      1.12693411
C       1.18164955     -0.51877302      0.41206620
H       2.77075203     -2.90817107     -0.02040840
H       4.20876976     -1.85554167     -0.20095959
H       4.27718679     -3.24920754      0.85104196
H       2.12592036     -1.88248834      3.47612976
H       1.46440622     -2.79652880      2.11061676
H       2.94695214     -3.31973729      2.91442235
H       2.16472747      0.04724168      2.25131889
H       4.72698085     -0.30917275      1.91376310
H       6.05163455      3.36801856     -0.27645158
H       5.49138945      2.24369603      0.92484391
H       2.11473445     -0.66947253     -2.64833834
H      -0.59473442     -0.06177188     -3.60560691
H      -3.75520965      0.87354281     -3.83162922
H      -6.75569803      1.67160956     -2.21164638
H      -7.11299872      1.25223622      0.18655825
H      -3.43773814     -2.08143662      1.32558899
H      -1.67883907     -2.09796265      1.28195276
H      -2.59791716     -2.07840931     -0.23147125
H      -3.51565365      0.30399853      2.51291236
H      -1.39642131      1.58161117      0.35198437
H       0.31848000      1.11331222      1.58044546
H      -0.28434315     -0.46493898      1.97492611
H       0.92012648     -1.58344388      0.31938259
