22
O=C([O-])CN(CC(=O)[O-])CC(=O)[O-].[Na+].[Na+].[Na+]
O       1.90183960     -2.32498942      1.25319458
C       2.18900902     -1.33771347      0.49718101
O       3.20787922     -1.23143181     -0.25685475
C       1.26818432     -0.07304783      0.64507334
N       0.16098450      0.05928241     -0.37381066
C      -0.71608255      1.23162168     -0.00248916
C       0.02075735      2.60621887      0.18896851
O       0.16736657      3.33704089     -0.84174869
O       0.29405191      2.92655818      1.39371619
C      -0.67007484     -1.20202224     -0.36849769
C      -1.96095793     -1.17687929     -1.26409527
O      -1.83543154     -1.53839261     -2.47716538
O      -3.05299810     -0.91729817     -0.65683255
Na      0.00000000      0.00000000      0.00000000
Na      0.00000000      0.00000000      0.00000000
Na      0.00000000      0.00000000      0.00000000
H       0.84844009     -0.07755557      1.65958485
H       1.93019370      0.79710680      0.56433481
H      -1.45305952      1.38922429     -0.79873219
H      -1.26750824      1.01234523      0.92123941
H      -0.97513971     -1.44824098      0.65707152
H      -0.05745384     -2.03182695     -0.74013787
