48
CS(=O)(=O)c1ccc(-c2ccc(F)c(F)c2)c(C(=O)N2Cc3cc(C(F)(F)F)cnc3C2)c1
C      -4.50452103      4.04086093      1.93967064
S      -3.32833433      4.16619398      0.61766217
O      -4.00935942      4.69535408     -0.54812722
O      -2.12743127      4.79768196      1.12933987
C      -2.91790506      2.47261104      0.26908927
C      -3.58157652      1.79155142     -0.75189614
C      -3.24660245      0.46120150     -1.02731005
C      -2.23967542     -0.20639120     -0.30316970
C      -1.93538859     -1.61539308     -0.61184230
C      -2.08887220     -2.62249421      0.36075044
C      -1.80030422     -3.95924876      0.06825902
C      -1.36048924     -4.30215373     -1.20338600
F      -1.08465609     -5.58324218     -1.48214336
C      -1.20955211     -3.32474283     -2.17728683
F      -0.78635627     -3.65488651     -3.40512364
C      -1.49464929     -1.99110648     -1.89237564
C      -1.56496844      0.52645454      0.69721935
C      -0.48479022     -0.07827550      1.49964670
O      -0.76855819     -0.53603385      2.60197916
N       0.78288001     -0.07212759      0.97135947
C       1.89660889     -0.66071257      1.70838055
C       3.07086812     -0.43360956      0.81718315
C       4.39397534     -0.79635608      0.97974542
C       5.29880098     -0.45657979     -0.03686507
C       6.75716261     -0.78733848      0.05952676
F       6.99507942     -1.93815333      0.74891629
F       7.46722402      0.18413964      0.69655841
F       7.35324114     -0.95297778     -1.15474379
C       4.81543616      0.23993285     -1.14851329
N       3.52060160      0.60348118     -1.32472368
C       2.68932007      0.25362182     -0.32933809
C       1.21269401      0.54015693     -0.29170020
C      -1.90006376      1.85371061      0.99276803
H      -4.81109059      5.05156320      2.21725959
H      -4.03301835      3.54901934      2.79233874
H      -5.36962119      3.47249412      1.59246087
H      -4.35866577      2.28044298     -1.33750744
H      -3.78928712     -0.06026297     -1.81571857
H      -2.43453202     -2.37046860      1.36385536
H      -1.91628213     -4.72901525      0.82497997
H      -1.35887902     -1.25302690     -2.67885873
H       2.00558616     -0.14497380      2.66723976
H       1.69863149     -1.72567735      1.86492910
H       4.72274108     -1.33139459      1.86695491
H       5.47924359      0.53348878     -1.96038076
H       1.01372627      1.61508000     -0.26230690
H       0.69484744      0.06932292     -1.13034074
H      -1.36323812      2.38827917      1.77466137
