50
CCCn1c(=O)c2[nH]c(C(C3CC3)C3CC3)nc2n(CCC)c1=O
C      -5.61498238      2.45708172     -1.97390739
C      -4.43987285      1.62620311     -1.48558574
C      -3.55198117      2.42142188     -0.52563094
N      -2.42321622      1.62547963     -0.05622727
C      -1.25788592      1.65320212     -0.82903539
O      -1.11632094      2.30029558     -1.86195780
C      -0.23047707      0.83601085     -0.29909080
N       1.03726337      0.60827264     -0.74226477
C       1.61969764     -0.27864064      0.13816862
C       3.03876347     -0.77178184     -0.03195199
C       3.20154148     -1.58883837     -1.30431774
C       4.53325408     -1.81149087     -1.98188325
C       3.48079929     -0.97324378     -2.65665759
C       4.05684830      0.34412551      0.13823514
C       4.31955324      0.91787970      1.51176050
C       5.37473240      0.09288157      0.83342322
N       0.77168867     -0.61188540      1.09941114
C      -0.36611369      0.08187897      0.82150098
N      -1.54271414      0.05466073      1.53125776
C      -1.69301965     -0.78906207      2.71201852
C      -2.41688355     -2.10880402      2.42856292
C      -1.61933364     -3.05599326      1.54466214
C      -2.62339519      0.82629910      1.08972065
O      -3.71017241      0.80640449      1.67584043
H      -5.27013022      3.34847844     -2.50755238
H      -6.24275075      2.77845658     -1.13670100
H      -6.23572570      1.87041501     -2.65828466
H      -4.81648817      0.72392556     -0.98952745
H      -3.85232882      1.28898998     -2.34768932
H      -3.17720854      3.32160570     -1.02733996
H      -4.14165255      2.76133434      0.33390523
H       1.46656249      1.00817037     -1.56643699
H       3.20302404     -1.48673493      0.78774298
H       2.52922663     -2.44477791     -1.28540712
H       5.41896773     -1.30976345     -1.61254610
H       4.73334616     -2.79790426     -2.38726160
H       3.67134815      0.08891546     -2.74431387
H       2.97573412     -1.39761664     -3.51833579
H       4.04821601      1.05231481     -0.68196285
H       4.48223113      1.98663599      1.59365747
H       3.80321300      0.48526746      2.36248311
H       5.57574520     -0.89623823      1.22983515
H       6.25320929      0.60319832      0.45482985
H      -2.27369001     -0.22752728      3.45442828
H      -0.71183540     -0.97642544      3.16413307
H      -3.39090087     -1.91954658      1.96333918
H      -2.61179956     -2.60891207      3.38466972
H      -2.14276705     -4.01302774      1.45206238
H      -0.62970897     -3.25166874      1.96934473
H      -1.49161046     -2.64992211      0.53687663
