9
S=c1[nH][nH]c(=S)s1
S       2.88965116      0.79380995     -0.11206917
C       1.25653364      0.54061167     -0.01417201
N       0.68570670     -0.70322164      0.05274451
N      -0.69275745     -0.69654651     -0.04905721
C      -1.25102353      0.55330937      0.01128993
S      -2.88150483      0.82345868      0.10780899
S       0.00888266      1.76346383     -0.00464594
H       1.22788448     -1.54399709     -0.12136643
H      -1.24337282     -1.53088826      0.12946731
