21
Cc1ccc(C(=O)O)c(C)c1
C       3.23095711      0.13603807     -0.08816530
C       1.74476709     -0.05600755     -0.16161939
C       1.20510818     -1.16167864     -0.81940826
C      -0.17795122     -1.35254004     -0.85806092
C      -1.05175516     -0.44719306     -0.23062795
C      -2.52640114     -0.68610211     -0.29354393
O      -3.40784040     -0.01461003      0.20809148
O      -2.84454222     -1.78658450     -1.00337870
C      -0.51613799      0.66633082      0.45041257
C      -1.37602725      1.68032321      1.15547558
C       0.88132637      0.84180909      0.47861150
H       3.62708850     -0.35058886      0.80838099
H       3.72450991     -0.28886209     -0.96857495
H       3.48553185      1.20063875     -0.05611837
H       1.85516036     -1.88401091     -1.30847615
H      -0.56391943     -2.22286879     -1.38440938
H      -3.82327824     -1.81155406     -0.95814730
H      -1.94900762      1.20511816      1.95778304
H      -0.77086781      2.46862086      1.61677145
H      -2.05153327      2.16923748      0.44660300
H       1.30481237      1.69448420      1.00840099
