19
Nc1cc([N+](=O)[O-])c(O)c([N+](=O)[O-])c1
N      -1.72854631     -2.26016251     -0.91625655
C      -0.92019224     -1.24373795     -0.40763345
C      -1.43480107      0.04533496     -0.23776914
C      -0.60072557      1.11125561      0.15688468
N      -1.20937008      2.42937538      0.36004387
O      -2.44008106      2.52505243      0.26868167
O      -0.44717858      3.37390660      0.61903328
C       0.77345842      0.91237075      0.34538165
O       1.64241862      1.88451219      0.75700111
C       1.27393528     -0.36887432      0.10548468
N       2.69092186     -0.63142111      0.23622929
O       3.44046490     -0.13742445     -0.61598903
O       3.03339703     -1.38540876      1.15752463
C       0.45327330     -1.43800371     -0.28001429
H      -1.39566765     -3.20617982     -0.74826835
H      -2.72184104     -2.16763910     -0.71990007
H      -2.49677920      0.21329267     -0.41401581
H       1.19721728      2.75814831      0.81451739
H       0.89009612     -2.41439717     -0.48093556
