29
Nc1ncn([C@@H]2O[C@H](CO)[C@@H](O)[C@H]2O)c(=O)n1
N      -4.44817255      1.89158002     -0.95553373
C      -3.23185325      1.47610271     -0.53299892
N      -2.39236906      0.98451909     -1.47536049
C      -1.19843285      0.69881924     -1.09978574
N      -0.75534656      0.84906791      0.16897046
C       0.53830914      0.36521671      0.61716905
O       1.48755583      0.41208160     -0.46430077
C       2.33189673     -0.77098170     -0.37382087
C       2.07667689     -1.60790776     -1.62933782
O       2.42910361     -0.86271640     -2.79330691
C       1.94947016     -1.50453124      0.90652001
O       2.74023007     -1.01614276      1.99891207
C       0.50543935     -1.08787349      1.11938735
O       0.15472754     -1.24817211      2.49375713
C      -1.70062633      1.13390063      1.12231424
O      -1.46148281      0.93716982      2.31407259
N      -2.91971782      1.57728785      0.71161621
H      -4.46468380      2.15887351     -1.93061026
H      -4.88431780      2.55352321     -0.32693261
H      -0.46942522      0.31738084     -1.82930190
H       0.89701812      1.03653014      1.40839595
H       3.36860200     -0.41711351     -0.35994648
H       2.67005235     -2.52680446     -1.62008317
H       1.01889446     -1.87217272     -1.72555231
H       2.16710505      0.06308420     -2.62725826
H       2.09102159     -2.58814910      0.86336357
H       2.22645459     -1.23093509      2.80661067
H      -0.16638509     -1.70084447      0.50751969
H      -0.55974432     -0.60520097      2.70552125
