8
CC(F)(Cl)Cl
C      -0.79968078      0.07419985      0.16487612
C       0.66491364     -0.09751949     -0.19337910
F       0.74588144     -0.82449723     -1.34053552
Cl      1.42540343      1.48597494     -0.46537633
Cl      1.51979971     -0.97025676      1.09785330
H      -1.33899906      0.57878724     -0.64458170
H      -0.93517865      0.65402921      1.08411782
H      -1.28213971     -0.90071776      0.29702541
