56
CCOC(=O)C(CCc1ccccc1)NC(C)CN1CCCC1C(=O)O
C       2.70225072      3.96253580     -1.58927726
C       1.71231938      4.03916367     -0.44198432
O       1.71470220      2.80616709      0.29199368
C       0.89807291      1.82791986     -0.18817803
O       0.16839284      1.92885716     -1.16847671
C       1.02984677      0.55209016      0.66252561
C       2.40845015     -0.09361498      0.44835344
C       2.68161532     -0.55178569     -0.98977174
C       4.08079942     -1.09937982     -1.13346814
C       5.14080806     -0.25635421     -1.49359340
C       6.43729715     -0.76071917     -1.60624821
C       6.68623171     -2.10915896     -1.35643506
C       5.63966356     -2.95421604     -0.99175118
C       4.34262356     -2.45193263     -0.87800650
N      -0.05135309     -0.41607674      0.32250035
C      -1.33783526     -0.07918092      0.97456671
C      -1.34602737     -0.66150054      2.38993231
C      -2.51725122     -0.61551150      0.10102435
N      -3.85372801     -0.26058942      0.64064169
C      -4.45563249     -1.40110244      1.37160236
C      -5.11644578     -2.27042492      0.31980770
C      -5.57786805     -1.29608906     -0.74925012
C      -4.83256600      0.00628152     -0.47305098
C      -5.79314183      1.12218888     -0.01585430
O      -6.82410379      1.44247650     -0.58682861
O      -5.34297158      1.74579272      1.10508871
H       2.41629264      3.18440389     -2.30391223
H       2.75851047      4.91836400     -2.11754522
H       3.69983590      3.70268205     -1.21962144
H       2.01648353      4.82677011      0.25511994
H       0.70555860      4.29140957     -0.79450579
H       0.94829509      0.84512587      1.71565128
H       2.50822723     -0.95081223      1.12798303
H       3.18590795      0.62067784      0.75103505
H       1.96465444     -1.32328198     -1.29532779
H       2.55163895      0.27858487     -1.69414253
H       4.96300021      0.79886362     -1.68795400
H       7.25406652     -0.10104647     -1.88766829
H       7.69602372     -2.50101535     -1.44405493
H       5.83366882     -4.00491529     -0.79370110
H       3.53617776     -3.12139752     -0.58718888
H      -0.17809812     -0.35425750     -0.69359754
H      -1.45407033      1.01055892      1.03797677
H      -2.24278399     -0.35258743      2.93660585
H      -1.31442401     -1.75642046      2.37010291
H      -0.48981266     -0.31575212      2.97829780
H      -2.39060549     -0.15622051     -0.88858011
H      -2.41159365     -1.69657424     -0.05815316
H      -5.21586177     -1.01193039      2.06024485
H      -3.74210895     -1.96632053      1.97770444
H      -4.39607080     -2.97771839     -0.10697171
H      -5.94822968     -2.85126662      0.73020888
H      -6.66579808     -1.17600752     -0.70512999
H      -5.32630501     -1.69023057     -1.74014698
H      -4.34486348      0.40110410     -1.37209983
H      -4.51186510      1.27337398      1.35872769
