45
Cc1cc(N(CCO)CCO)ccc1N=Nc1c(Cl)cc([N+](=O)[O-])cc1Cl
C       0.59958680      1.76070118     -1.67421058
C      -0.17697993      0.67824390     -0.97803117
C      -1.57511377      0.80769722     -0.84304897
C      -2.35550005     -0.15234258     -0.18181982
N      -3.74559142     -0.05491642     -0.04012387
C      -4.23593391     -0.06200640      1.36354654
C      -3.92478722      1.23978809      2.12119022
O      -4.73594528      2.31835653      1.65362054
C      -4.53052366      0.80822961     -0.95842512
C      -4.56397043      0.20499516     -2.37047391
O      -4.98094785     -1.15997747     -2.30470987
C      -1.68248567     -1.26707074      0.33883923
C      -0.29541159     -1.40614693      0.22605286
C       0.47326258     -0.42948872     -0.41400299
N       1.86700565     -0.59441895     -0.53613148
N       2.42357702     -0.42362051      0.57251450
C       3.81184458     -0.63914314      0.44360984
C       4.68977088      0.42497543      0.16526736
Cl      4.10655626      2.04184552     -0.03261208
C       6.06863788      0.21895264      0.04834046
C       6.58672404     -1.06833207      0.22088170
N       8.03229889     -1.29181543      0.09977524
O       8.75521020     -0.29776337     -0.04968285
O       8.43833947     -2.45979546      0.15717960
C       5.74237443     -2.14234121      0.51722009
C       4.36600599     -1.92007352      0.63272879
Cl      3.36965434     -3.27867775      1.02979537
H      -0.04811259      2.35132431     -2.33111822
H       1.38817959      1.33752307     -2.30494805
H       1.04626340      2.43308016     -0.93555481
H      -2.04054573      1.69758539     -1.25649337
H      -3.81304120     -0.90845453      1.91557449
H      -5.32099958     -0.22381460      1.35098673
H      -4.14735480      1.10162620      3.18395396
H      -2.87326593      1.52530896      2.02147883
H      -4.44129290      3.11433087      2.12892853
H      -5.56888433      0.84018936     -0.60423499
H      -4.17084835      1.84209720     -0.97241697
H      -5.26768573      0.75118070     -3.00547364
H      -3.58064453      0.23258429     -2.84858843
H      -4.49863610     -1.51162425     -1.52728983
H      -2.24071921     -2.06626610      0.82005098
H       0.18873889     -2.28859578      0.63643942
H       6.72145898      1.06168748     -0.17293643
H       6.13973188     -3.14561734      0.66343583
