39
CCCCC(CC)C(=O)OOC(C)(C)C
C      -4.43946586      2.11715956     -0.76381974
C      -3.70909573      0.81061947     -0.49249278
C      -2.63658502      0.98530872      0.58308594
C      -1.95604892     -0.32851153      0.99028260
C      -1.19417342     -1.04852177     -0.13878897
C      -0.56896885     -2.35601393      0.37745195
C      -0.03475959     -3.23570403     -0.74598142
C      -0.12897553     -0.15516564     -0.75612952
O      -0.04814193      0.05540150     -1.96083894
O       0.71229099      0.33446135      0.20835199
O       1.65333037      1.24046623     -0.45051839
C       2.98559525      0.78707918     -0.16085071
C       3.92084666      1.76607169     -0.88017509
C       3.22095244     -0.62498120     -0.70595227
C       3.25043435      0.85081577      1.34700887
H      -3.74504567      2.89009180     -1.10839978
H      -5.19903536      1.97274773     -1.53851452
H      -4.94034270      2.48193865      0.13860718
H      -3.25807645      0.46338984     -1.42801068
H      -4.43451928      0.05214004     -0.17675733
H      -3.09784431      1.41758094      1.48016241
H      -1.88641024      1.70917914      0.24375182
H      -1.27183978     -0.11368536      1.82130216
H      -2.72051169     -1.00564884      1.39284338
H      -1.90787704     -1.30077459     -0.93258966
H      -1.32434734     -2.92940368      0.92854503
H       0.24487518     -2.14336571      1.08109716
H      -0.82967448     -3.49233175     -1.45346867
H       0.76967434     -2.74066659     -1.29761484
H       0.36560727     -4.16795646     -0.33498057
H       4.97441421      1.51559974     -0.71789978
H       3.75181040      2.79256935     -0.53452455
H       3.72730457      1.76760930     -1.95920556
H       4.26988916     -0.92337283     -0.60520255
H       2.94045604     -0.68729698     -1.76325610
H       2.61382195     -1.36464340     -0.17376596
H       4.29379032      0.61454368      1.58123489
H       3.02126893      1.84758436      1.74049490
H       2.61537677      0.14568624      1.89453410
