20
CC(=O)c1ccc(O)c(C(=O)[O-])c1
C       2.99241446     -0.67901224      0.59957252
C       2.33948316      0.34121189     -0.29692383
O       3.01817936      1.11347199     -0.97419416
C       0.84872643      0.40294334     -0.35281888
C       0.24616698      1.35315238     -1.18778392
C      -1.14443757      1.43941680     -1.26510474
C      -1.93402253      0.57711200     -0.50890139
O      -3.29269204      0.71307364     -0.62981904
C      -1.36111752     -0.38422868      0.33580370
C      -2.21222834     -1.32056318      1.15693616
O      -1.61758968     -2.16218552      1.89655383
O      -3.47269146     -1.17705790      1.02950710
C       0.04331676     -0.45854214      0.40264644
H       2.71726637     -1.68986230      0.28775741
H       2.71572673     -0.50091494      1.64191489
H       4.07991655     -0.58462839      0.51794113
H       0.85576703      2.02983393     -1.78121489
H      -1.61620033      2.17372298     -1.91035921
H      -3.68046430      0.02203056     -0.02352582
H       0.47447993     -1.20897420      1.06201271
