35
O=C([O-])CCCCCCCCCCO
O       6.22780823      0.34955431      1.90154272
C       6.46903932     -0.16596733      0.77599141
O       7.57525976     -0.53079694      0.28195358
C       5.26798439     -0.39513132     -0.14712176
C       3.91869672      0.03307326      0.42119648
C       2.78558961     -0.23630122     -0.57026265
C       1.43222259      0.19216450     -0.00048337
C       0.30142704     -0.08051418     -0.99362542
C      -1.05502122      0.34564633     -0.42719990
C      -2.18101455      0.06339620     -1.42403436
C      -3.55007495      0.56601722     -0.95813400
C      -4.07281764     -0.15527314      0.28323078
C      -5.50000348      0.26658626      0.61276261
O      -5.95129055     -0.40354154      1.78271059
H       5.45997383      0.14802506     -1.08085601
H       5.23837899     -1.46416415     -0.39216083
H       3.72391659     -0.50591947      1.35660032
H       3.94408301      1.10158201      0.66832027
H       2.75873331     -1.30502338     -0.81555064
H       2.97853448      0.30509829     -1.50444748
H       1.23908713     -0.34847896      0.93404260
H       1.45758560      1.26120259      0.24330366
H       0.27719878     -1.14955848     -1.23790145
H       0.49579250      0.46025474     -1.92788683
H      -1.23758798     -0.19359465      0.50895786
H      -1.03381605      1.41579545     -0.18874135
H      -2.23499959     -1.01333360     -1.62620571
H      -1.94524213      0.55142806     -2.37799415
H      -3.50087299      1.64473854     -0.76609746
H      -4.26178570      0.42447838     -1.78109089
H      -3.43354995      0.04883151      1.14985176
H      -4.04087994     -1.24130805      0.13201403
H      -5.55603057      1.34368739      0.79838185
H      -6.18370993      0.02369413     -0.20699416
H      -5.81261468     -1.35634783      1.64691087
