43
Cc1ccccc1C(OCCN(C)C)c1ccccc1
C      -3.16253229     -1.49626171     -1.58546772
C      -2.84827032     -1.79682534     -0.14454376
C      -3.76993204     -2.57039886      0.58513515
C      -3.55555930     -2.86811387      1.92943748
C      -2.41992682     -2.39048481      2.56928807
C      -1.50059378     -1.61354681      1.86420929
C      -1.69016846     -1.29990575      0.50162187
C      -0.66271066     -0.42688500     -0.22911328
O       0.58823996     -0.43641483      0.48421620
C       1.71862916     -0.24536951     -0.37232782
C       2.99005014     -0.25638887      0.48943963
N       4.24326001     -0.16237090     -0.28448167
C       4.40514089      1.16006961     -0.89318747
C       5.38622905     -0.44446855      0.58888167
C      -1.11557109      1.01662281     -0.39912098
C      -1.36330442      1.83586168      0.71408852
C      -1.76694365      3.16169800      0.54823885
C      -1.92270976      3.68863103     -0.73187127
C      -1.67241634      2.89210023     -1.84717088
C      -1.26882390      1.56554384     -1.68309401
H      -3.48250734     -0.45615945     -1.69375503
H      -2.29768948     -1.68846144     -2.22674972
H      -3.97302467     -2.13306006     -1.95716871
H      -4.67069853     -2.94756024      0.10490780
H      -4.27712089     -3.46923094      2.47568446
H      -2.24719638     -2.61691471      3.61777775
H      -0.62235853     -1.24568930      2.39205423
H      -0.48793917     -0.89210722     -1.20716401
H       1.61740652      0.70864085     -0.89836960
H       1.75984236     -1.05903186     -1.10585580
H       2.98187938     -1.19876346      1.05434502
H       2.92856023      0.53856343      1.24518126
H       4.38619150      1.96400118     -0.14848742
H       5.35587320      1.21887591     -1.43565872
H       3.62364526      1.35338224     -1.63445755
H       5.31010778     -1.45316962      1.01014404
H       5.46203704      0.27122737      1.41566999
H       6.32232723     -0.41575549      0.01986416
H      -1.23868237      1.43953345      1.71965480
H      -1.95875135      3.78181271      1.41985941
H      -2.23771773      4.72081263     -0.85953654
H      -1.79127848      3.30455014     -2.84567623
H      -1.07499195      0.96141150     -2.56644142
