17
O=C(O)CCCC(=O)O
O      -1.82373112     -1.03289998      1.19677181
C      -2.14685543     -0.39352349      0.21132694
O      -3.41676005      0.02784166      0.05283124
C      -1.27236877      0.01932166     -0.94273197
C       0.19201837     -0.37341275     -0.75268282
C       0.90338843      0.48883762      0.29192773
C       2.35579988      0.11510934      0.42004658
O       2.97012355     -0.71324052     -0.22917623
O       2.97665018      0.83572307      1.37477764
H      -3.88106368     -0.30596221      0.84918494
H      -1.65798693     -0.48096041     -1.83833926
H      -1.35730082      1.10242038     -1.08245384
H       0.70799855     -0.26476852     -1.71518802
H       0.26926078     -1.43249769     -0.47629168
H       0.84898938      1.54404169      0.00231119
H       0.43460775      0.36466223      1.27326264
H       3.89722994      0.49930792      1.36442310
