37
NCCNc1ccc(S(=O)(=O)c2ccc(N)cc2)cc1
N       5.33335970      1.27390072      1.53706130
C       5.65740174      0.60430443      0.26710302
C       4.38866290      0.20157832     -0.51467408
N       3.51916995     -0.58743038      0.35646526
C       2.19889014     -0.83743301     -0.01596756
C       1.76693905     -0.86147334     -1.34865123
C       0.44753512     -1.19026038     -1.67908737
C      -0.45031682     -1.52428440     -0.66634465
S      -2.13033944     -1.94371083     -1.06290755
O      -2.26686393     -1.93239347     -2.50866041
O      -2.45643811     -3.13672470     -0.30247231
C      -3.13566198     -0.61189340     -0.44919468
C      -3.93512575     -0.79955413      0.67882845
C      -4.71503087      0.26026383      1.14883169
C      -4.74123938      1.48547394      0.47405855
N      -5.42928775      2.57412610      1.02079253
C      -3.89882664      1.66836963     -0.62765261
C      -3.11322227      0.61829716     -1.10910521
C      -0.03418900     -1.56223582      0.66361647
C       1.28685477     -1.22988114      0.97624481
H       4.82328574      2.13562233      1.34364744
H       6.20074825      1.55101348      1.99611664
H       6.27610756      1.26442125     -0.34984252
H       6.24572902     -0.29186071      0.49368414
H       3.87324658      1.11144833     -0.84678081
H       4.67945092     -0.38061205     -1.39597536
H       3.60968784     -0.26372248      1.32309554
H       2.45479058     -0.63459334     -2.15798184
H       0.14341913     -1.19592084     -2.72322511
H      -3.95230494     -1.75216657      1.20327633
H      -5.30969768      0.11935893      2.04814410
H      -5.66087049      3.29650135      0.34582570
H      -6.22854152      2.31226870      1.58991591
H      -3.85279427      2.63405187     -1.12501510
H      -2.48915734      0.77110121     -1.98634788
H      -0.71478165     -1.86171328      1.45672362
H       1.60941085     -1.28423730      2.01404076
