16
C=CC(O)CC
C       2.53958785      0.12806789      0.66299722
C       1.44403542     -0.56187385      0.31886218
C       0.24244855      0.02951308     -0.35800034
O       0.08373145     -0.64428497     -1.60084596
C      -1.02167994     -0.15503748      0.48542495
C      -2.24294561      0.48480244     -0.16280800
H       2.63012590      1.19296514      0.47194696
H       3.37447253     -0.36603214      1.15118584
H       1.40296528     -1.62828282      0.53315733
H       0.39481084      1.09413932     -0.57102066
H       0.93518836     -0.57546479     -2.06570699
H      -1.23120816     -1.22349431      0.62266024
H      -0.87751555      0.28304265      1.48044278
H      -2.46371699      0.02946615     -1.13324745
H      -2.08913863      1.55820451     -0.31251053
H      -3.12116130      0.35426918      0.47746243
