41
COC(=O)c1ccccc1S(=O)(=O)NC(=O)Nc1nc(C)nc(OC)n1
C       2.39557602     -0.34539718      3.30159668
O       3.02839298      0.22717306      2.15716344
C       2.22426803      0.30494071      1.07080976
O       1.07888684     -0.10103543      0.96949631
C       2.96131451      0.97255507     -0.02043874
C       4.21512753      0.46001957     -0.38954436
C       4.91832855      1.02341701     -1.45594978
C       4.37497983      2.09617785     -2.16129316
C       3.13073354      2.61422282     -1.79900921
C       2.42028724      2.04918898     -0.73099186
S       0.89124757      2.79355589     -0.23142307
O       0.70199870      4.00972096     -0.99312797
O       0.89622203      2.84929208      1.21608856
N      -0.24968293      1.69308437     -0.68995727
C      -0.47302173      1.23937870     -1.98085976
O       0.13462973      1.68683569     -2.94652924
N      -1.38274021      0.24704742     -2.16985712
C      -2.14609911     -0.42835225     -1.23501477
N      -2.04338438     -0.12388681      0.05592457
C      -2.78971582     -0.85842962      0.88065600
C      -2.70866790     -0.55206804      2.34348853
N      -3.62468613     -1.81615693      0.48783236
C      -3.65231976     -2.02210431     -0.82640716
O      -4.47664207     -2.99403380     -1.35184074
C      -5.23802021     -3.68022747     -0.36682839
N      -2.93676257     -1.36650622     -1.73225586
H       3.11900036     -0.35187786      4.12167030
H       2.09481142     -1.37768728      3.09651108
H       1.53271410      0.25655118      3.60425699
H       4.64500397     -0.38416474      0.14595512
H       5.88895978      0.62308751     -1.74049556
H       4.92133159      2.53405421     -2.99421213
H       2.72028296      3.45540525     -2.35623140
H      -0.63598923      1.14832163      0.08416758
H      -1.51445107     -0.05103103     -3.12310611
H      -3.35466490      0.29876875      2.57820771
H      -3.02930110     -1.41242010      2.93917164
H      -1.68050518     -0.30414495      2.62482355
H      -5.85583761     -4.42328696     -0.88047600
H      -5.91177514     -2.99751808      0.16267642
H      -4.58983024     -4.21627588      0.33535310
