40
CCCCCCCC(=O)O.OCC(O)CO
C      -4.46674998      0.32683581     -0.11197306
C      -3.18255248     -0.48676203     -0.09191262
C      -1.95052259      0.41351729     -0.00351333
C      -0.66091755     -0.40873302      0.01641514
C       0.57208216      0.49211209      0.10485935
C       1.86109365     -0.32951805      0.12483635
C       3.08934980      0.56779309      0.21260172
C       4.34404775     -0.25430944      0.25918043
O       4.95804277     -0.57843254      1.26146485
O       4.75353102     -0.65118738     -0.96004534
O       1.90273156      1.25075947      0.49679458
C       1.25610834      0.00771915      0.21263271
C      -0.23594774      0.27452426      0.02574022
O      -0.75588527      0.89417407      1.21614414
C      -1.01984723     -1.01055926     -0.22630808
O      -2.40574618     -0.70097761     -0.37020097
H      -4.49064800      1.00098539     -0.97411419
H      -4.56450383      0.92809396      0.79757013
H      -5.33485910     -0.33669075     -0.17546081
H      -3.13137841     -1.10018172     -0.99899701
H      -3.20482642     -1.17267166      0.76291860
H      -1.93527380      1.10034522     -0.85856058
H      -2.00872135      1.02785860      0.90327678
H      -0.67626087     -1.09537322      0.87157687
H      -0.60284839     -1.02289460     -0.89047308
H       0.58758925      1.17865868     -0.75038386
H       0.51390463      1.10629118      1.01173263
H       1.91905371     -0.94948004     -0.77852631
H       1.84807988     -1.02055720      0.97706945
H       3.05784536      1.18817558      1.11570517
H       3.14617834      1.25553335     -0.63888524
H       5.55926448     -1.17940860     -0.77968099
H       2.85174845      1.05851256      0.60121885
H       1.69855134     -0.42435936     -0.68987746
H       1.43240141     -0.65661834      1.06475313
H      -0.40349418      0.99244567     -0.78508559
H      -0.11239114      1.60332283      1.42147350
H      -0.92750166     -1.70201267      0.61764256
H      -0.68194642     -1.51389014     -1.13674241
H      -2.59878126     -0.07304063      0.35555766
