10
[Au+3].[Cl-].[Cl-].[Cl-].[Cl-].[NH4+]
Au      0.00000000      0.00000000      0.00000000
Cl      0.00000000      0.00000000      0.00000000
Cl      0.00000000      0.00000000      0.00000000
Cl      0.00000000      0.00000000      0.00000000
Cl      0.00000000      0.00000000      0.00000000
N      -0.02214736      0.00290476      0.01658459
H      -0.63205943      0.83736448     -0.08401717
H      -0.35150256     -0.80149801     -0.56458884
H       0.09295456     -0.31099288      0.99715861
H       0.91275479      0.27222166     -0.36513719
