42
CCCN(CCC)c1c([N+](=O)[O-])cc(S(C)(=O)=O)cc1[N+](=O)[O-]
C      -3.12539620     -3.19351018     -0.82827576
C      -2.63040489     -2.05306490      0.04715744
C      -1.63630010     -1.16423672     -0.70153538
N      -1.06634555     -0.14271741      0.20352938
C      -1.94843960      0.98987749      0.56396707
C      -2.37678812      0.86977748      2.02797623
C      -3.35584865      1.96774235      2.41201289
C       0.26819174      0.20173036     -0.06852176
C       0.71666618      0.90706923     -1.20459414
N      -0.21176238      1.31280739     -2.23725694
O      -0.30861214      0.56378255     -3.21828119
O      -0.80102786      2.38867388     -2.07990356
C       2.06736760      1.22645703     -1.43417738
C       3.02442056      0.82411716     -0.50315445
S       4.73303780      1.25336883     -0.75154207
C       5.39637426     -0.15170108     -1.60703019
O       5.34255933      1.32355832      0.56082187
O       4.75299392      2.38933536     -1.65094777
C       2.64651622      0.13261680      0.64576177
C       1.28759753     -0.17179159      0.83263918
N       0.95501293     -0.94932853      2.00937060
O       0.80725668     -2.16890594      1.84972554
O       0.92962704     -0.34557535      3.08976415
H      -3.84093220     -3.81142078     -0.27684112
H      -2.29618904     -3.83464383     -1.14395784
H      -3.62538616     -2.81136993     -1.72397990
H      -3.49228623     -1.46241782      0.37682183
H      -2.16063979     -2.46554018      0.94787244
H      -2.13233106     -0.68931827     -1.55621245
H      -0.83639105     -1.80211286     -1.10095150
H      -1.44330840      1.95471995      0.43245814
H      -2.83261040      1.00561856     -0.08510575
H      -1.49771480      0.93288462      2.67857552
H      -2.83847728     -0.10517808      2.21703023
H      -4.26554962      1.91133193      1.80576127
H      -2.90985236      2.95766166      2.27254631
H      -3.64206410      1.86938261      3.46382102
H       2.35699716      1.78395916     -2.32494186
H       6.45437091      0.03810031     -1.80017017
H       5.28699094     -1.03677653     -0.97753666
H       4.86344128     -0.27802741     -2.55130577
H       3.38523594     -0.16693562      1.38861073
