25
Nc1ccc(S(=O)(=O)Nc2nccs2)cc1
N      -4.80694279     -0.11633819      1.10329856
C      -3.54187427     -0.10273854      0.50597262
C      -3.08536554     -1.22233704     -0.19807429
C      -1.78086030     -1.27202448     -0.69715405
C      -0.91155268     -0.20993361     -0.44489386
S       0.75145736     -0.24362204     -1.07388769
O       1.04885843      1.09222630     -1.54130427
O       0.87068040     -1.39866028     -1.93851391
N       1.59956910     -0.61196928      0.34098227
C       2.89265601      0.04246971      0.37444214
N       3.96144170     -0.67839016      0.14596055
C       5.07964817      0.12126047      0.29081120
C       4.83610076      1.42203747      0.68008815
S       3.14738005      1.65321380      0.88050819
C      -1.33550654      0.89505087      0.29652601
C      -2.64234450      0.93043673      0.78911525
H      -5.48476954     -0.69839822      0.62080888
H      -5.17445602      0.80700102      1.31175158
H      -3.74795133     -2.06753787     -0.36794566
H      -1.45691090     -2.14078458     -1.26519373
H       1.78910517     -1.61520543      0.31618553
H       6.06045939     -0.30037909      0.10527083
H       5.54434195      2.21761683      0.86084908
H      -0.65741265      1.71989996      0.50293033
H      -2.95575143      1.77710565      1.39483891
