23
C[N+](C)(C)CCO.[OH-]
C      -1.80663443     -0.08339529      0.98387148
N      -0.59306010      0.09334418      0.07121338
C      -0.68830346     -0.93759431     -1.05235585
C      -0.62842116      1.49186398     -0.52177521
C       0.67830355     -0.12735021      0.93204662
C       2.00906155     -0.04493569      0.16424953
O       2.13692016     -1.12750784     -0.74973410
O       0.48890385      0.00000000      0.00000000
H      -1.73961219      0.64972065      1.79323806
H      -2.71406126      0.08294376      0.39547232
H      -1.79368111     -1.10144023      1.38445091
H      -1.69203185     -0.87802208     -1.48537912
H       0.04378881     -0.69504549     -1.82576395
H      -0.51869502     -1.93184976     -0.62989199
H      -1.58810285      1.62818534     -1.02978583
H      -0.52116223      2.21563809      0.29123219
H       0.18739210      1.59610847     -1.24113155
H       0.57115737     -1.12070240      1.38351082
H       0.65487719      0.63141902      1.72237662
H       2.11397424      0.89650198     -0.38064385
H       2.83407459     -0.11594045      0.88098279
H       3.05421611     -1.12194172     -1.08618327
H      -0.48890385      0.00000000      0.00000000
