25
CCOc1ccc(NC(N)=O)cc1
C      -4.70550833     -0.52383128      0.67678849
C      -3.20019515     -0.71813475      0.71237194
O      -2.61150828      0.24793495     -0.15686517
C      -1.24970127      0.22964121     -0.27302989
C      -0.72493113      1.18053168     -1.14862353
C       0.65419939      1.27056805     -1.36095100
C       1.53148453      0.40576789     -0.69939473
N       2.90736656      0.55841306     -0.95427225
C       3.93130918     -0.23832903     -0.51865666
N       5.14805606      0.25439764     -0.89622131
O       3.87242697     -1.27674354      0.12195333
C       1.00518038     -0.54102481      0.18012426
C      -0.37820819     -0.63064231      0.39167297
H      -4.97113422      0.48927855      0.99653322
H      -5.08603970     -0.64638765     -0.34270191
H      -5.20708662     -1.24336007      1.32998184
H      -2.96251310     -1.73244081      0.37140396
H      -2.84517609     -0.57223581      1.73909344
H      -1.39610862      1.85745167     -1.67150634
H       1.02472310      2.02354119     -2.05077597
H       3.17003294      1.25184809     -1.63842585
H       5.90811447     -0.28379700     -0.49589641
H       5.27207190      1.25188836     -0.80028989
H       1.64703512     -1.22839821      0.72333382
H      -0.73388990     -1.38593707      1.08446109
