46
C[C@]12CC[C@@H]3C4=C(CC[C@H]3[C@@H]1CC[C@@H]2O)CC(=O)CC4
C      -2.21769884      1.75950950     -1.10815909
C      -2.30076014      0.69802632      0.01968263
C      -1.60677372      1.24457949      1.27556014
C      -0.07613019      1.31946950      1.09819042
C       0.54514511     -0.02435151      0.63409213
C       2.06226564     -0.00072896      0.44774989
C       2.67052197     -0.71164199     -0.52948087
C       1.91645618     -1.62516100     -1.47209086
C       0.45548203     -1.86184094     -1.08648866
C      -0.18146368     -0.54696151     -0.64218026
C      -1.67157429     -0.66791544     -0.32821194
C      -2.61972921     -1.23920199     -1.37736859
C      -4.00816308     -0.74596676     -0.92814272
C      -3.76117825      0.25061508      0.22261485
O      -4.67833801      1.32648531      0.19272003
C       4.15884043     -0.66422211     -0.78931362
C       4.88886121      0.29755570      0.12640666
O       5.94531209      0.83512413     -0.20793813
C       4.33256724      0.45310979      1.51368715
C       2.86012153      0.82523555      1.43442056
H      -2.72362574      1.43861030     -2.02407323
H      -1.18907621      2.00629210     -1.38322459
H      -2.69175173      2.69590980     -0.79124277
H      -1.82348491      0.59541415      2.13398485
H      -1.99674779      2.23641757      1.53371913
H       0.18200906      2.11350779      0.38755733
H       0.35055126      1.62183340      2.06172182
H       0.36376144     -0.74363813      1.44782752
H       2.42025540     -2.59767051     -1.52817182
H       1.95438041     -1.18642104     -2.47739783
H       0.39869994     -2.60199541     -0.27802308
H      -0.07479011     -2.28722423     -1.94588066
H      -0.04065430      0.17112755     -1.46036839
H      -1.75956422     -1.32913589      0.55026336
H      -2.38545056     -0.86326775     -2.37942914
H      -2.57884981     -2.33249931     -1.41550971
H      -4.62269796     -1.58148436     -0.57459146
H      -4.54706625     -0.28588085     -1.76400880
H      -3.87621291     -0.26459606      1.18468368
H      -5.57374229      0.94934762      0.23331756
H       4.33733628     -0.34535274     -1.82230427
H       4.59474204     -1.65820497     -0.64181843
H       4.88975789      1.22867794      2.04938972
H       4.47440740     -0.49419899      2.04618932
H       2.76553269      1.88245581      1.15668503
H       2.43851695      0.71025804      2.44000308
