12
Clc1cccc(I)c1
Cl     -2.36319526     -2.00485825      0.05946846
C      -1.07450812     -0.86439302      0.02586221
C      -1.36192751      0.50018360     -0.00700951
C      -0.31968979      1.42762582     -0.03431360
C       1.00526576      0.98771715     -0.02865858
C       1.28192306     -0.38052276      0.00434578
I       3.25619986     -1.03251619      0.01268245
C       0.24523572     -1.31304502      0.03175474
H      -2.39248329      0.84582652     -0.01149484
H      -0.53942973      2.49226348     -0.05997661
H       1.80845920      1.72053088     -0.05015014
H       0.45415009     -2.37881221      0.05748965
