26
O=C1c2ccc(O)cc2C(=O)c2ccc(O)cc21
O       0.55322250      2.57127438      0.43978033
C       0.29772486      1.39150777      0.22864190
C      -1.10206327      0.92389867      0.17833024
C      -2.14585270      1.83715924      0.37368329
C      -3.47044657      1.39985653      0.32703163
C      -3.74683840      0.05807945      0.08653374
O      -5.05473700     -0.32188970      0.05003168
C      -2.71990326     -0.85927918     -0.10914190
C      -1.38968399     -0.41998737     -0.06226655
C      -0.29772508     -1.39150867     -0.26960656
O      -0.55322225     -2.57127554     -0.48074373
C       1.10206311     -0.92389971     -0.21929405
C       2.14585329     -1.83716040     -0.41464386
C       3.47044717     -1.39985712     -0.36799207
C       3.74683835     -0.05807864     -0.12749833
O       5.05473634      0.32189191     -0.09099841
C       2.71990267      0.85927970      0.06817513
C       1.38968353      0.41998697      0.02130105
H      -1.93349707      2.88803522      0.56214515
H      -4.28475941      2.10438817      0.47797000
H      -5.10522931     -1.27706392     -0.12492928
H      -2.93695479     -1.90769572     -0.29703033
H       1.93349843     -2.88803730     -0.60310304
H       4.28476060     -2.10438884     -0.51892690
H       5.10522842      1.27706682      0.08395940
H       2.93695382      1.90769730      0.25606006
