21
CCCC(O)CC
C      -3.25566627     -0.21533058      0.02371482
C      -1.91639708      0.17917338      0.62675375
C      -0.75180426     -0.23645266     -0.27720557
C       0.60651364      0.18710359      0.29625268
O       0.80042133     -0.48039399      1.54054857
C       1.73972726     -0.17560695     -0.67086311
C       3.10098978      0.31744192     -0.19821560
H      -3.31910285     -1.29928304     -0.11535186
H      -3.40541039      0.26560310     -0.94819145
H      -4.07333925      0.09103686      0.68362371
H      -1.81836411     -0.29032137      1.61208036
H      -1.89780244      1.26436909      0.78038841
H      -0.77525228     -1.32702169     -0.39814760
H      -0.88696187      0.20899145     -1.27028576
H       0.60223316      1.26727215      0.48485840
H       1.56485193     -0.07196100      1.98017293
H       1.79285936     -1.26461401     -0.79013527
H       1.53519081      0.25580314     -1.65773543
H       3.86338096      0.09427015     -0.95151415
H       3.09136372      1.39986369     -0.03605572
H       3.40256884     -0.16994323      0.73376304
