20
CCNC(=S)NCC
C       2.51810454      0.94831769     -0.18845788
C       1.95814369      0.07696173      0.92096830
N       1.39426465     -1.15600409      0.39918187
C       0.13265538     -1.41485699     -0.04232141
S      -0.22668714     -2.98336098     -0.48419263
N      -0.72884308     -0.35563967     -0.05207146
C      -2.09795136     -0.38706732     -0.54965108
C      -2.84133233      0.88588926     -0.19050246
H       2.95750962      1.85982076      0.22797875
H       3.29620846      0.41622555     -0.74597269
H       1.73994197      1.23807070     -0.90154627
H       2.75818715     -0.20456673      1.61328074
H       1.19602927      0.61857363      1.48979886
H       2.00056661     -1.96928072      0.38872411
H      -0.28852118      0.55121024     -0.06461964
H      -2.61719657     -1.25158016     -0.12383364
H      -2.05769136     -0.50896887     -1.63737461
H      -2.34783481      1.76325767     -0.62169143
H      -3.86758076      0.84915528     -0.56824174
H      -2.87797273      1.02384304      0.89519982
