46
O[C@]12COC(c3ccccc3)O[C@@H]1[C@H]1OC(c3ccccc3)OC[C@H]1O2
O       1.37358553     -2.79105023      1.39648680
C       0.93516018     -2.45290586      0.07628807
C       2.10806572     -2.61560273     -0.88065674
O       3.14750912     -1.70037360     -0.48044458
C       2.70344973     -0.33183063     -0.44649334
C       3.83675075      0.56937645      0.01145350
C       3.56483377      1.84180905      0.54454482
C       4.60005033      2.69653057      0.93044073
C       5.92564241      2.29864849      0.77895778
C       6.21678640      1.04875209      0.23863510
C       5.18139962      0.19372604     -0.14737019
O       1.58532768     -0.16857725      0.44823937
C       0.52059115     -0.99539524      0.00140593
C      -0.74886038     -1.01909347      0.83147165
O      -1.64832226     -0.02181394      0.34719593
C      -2.97450951     -0.23002811      0.83957247
C      -3.88890470      0.85645063      0.29516588
C      -3.40701999      2.16149207      0.09015882
C      -4.24940963      3.17569541     -0.37162791
C      -5.59160462      2.90578539     -0.62511588
C      -6.09287378      1.62410072     -0.41313586
C      -5.25027182      0.60980609      0.04870605
O      -3.50188741     -1.52594905      0.52355032
C      -2.59349885     -2.34704045     -0.20234373
C      -1.27495086     -2.43921668      0.54264778
O      -0.26666455     -3.14975477     -0.21960851
H       2.16025644     -2.23208241      1.55639054
H       1.82785701     -2.43207494     -1.92420170
H       2.51947283     -3.62836351     -0.82066217
H       2.41948726     -0.01898559     -1.46070125
H       2.53550240      2.17414802      0.66809184
H       4.36959146      3.67279861      1.34892343
H       6.73138720      2.96275810      1.08001001
H       7.25083480      0.73710736      0.11573444
H       5.43486172     -0.77562882     -0.57256031
H       0.25262098     -0.70150209     -1.02507369
H      -0.55567740     -0.84778235      1.89674793
H      -2.96703363     -0.13438520      1.93279732
H      -2.36243015      2.39518351      0.28774983
H      -3.85621704      4.17623894     -0.53117014
H      -6.24740678      3.69425871     -0.98424940
H      -7.14140168      1.41139824     -0.60458467
H      -5.66643494     -0.38220514      0.21471857
H      -2.46271739     -1.95257048     -1.21780447
H      -3.03640165     -3.34228255     -0.31442534
H      -1.41652548     -2.96956937      1.49274507
