19
CC(=O)Nc1ccc(F)cc1
C       3.46444790      0.13068395     -0.26336538
C       2.11608217     -0.50961507     -0.04406016
O       2.02634970     -1.69785410      0.24214297
N       1.07903254      0.39636936     -0.17729804
C      -0.30179221      0.14736520     -0.03730652
C      -0.84393382     -1.10748008      0.25683364
C      -2.22794685     -1.27035703      0.37821908
C      -3.06772334     -0.17887648      0.20496912
F      -4.39241794     -0.33646605      0.32138937
C      -2.55036153      1.07531197     -0.08815536
C      -1.16788817      1.23814950     -0.20941640
H       3.79454114      0.60622898      0.66386891
H       4.18738409     -0.63630840     -0.55594714
H       3.41864194      0.87521114     -1.06339174
H       1.33691093      1.35121610     -0.39237490
H      -0.21760564     -1.98294378      0.39784098
H      -2.64910877     -2.24429741      0.60676755
H      -3.22349192      1.91617798     -0.22016629
H      -0.78112021      2.22748421     -0.43931765
