17
c1ccc2ncccc2c1
C      -2.28035271      0.78663839     -0.10095428
C      -2.38177258     -0.58028653     -0.33351217
C      -1.22921421     -1.37195099     -0.34659221
C       0.03167169     -0.83117484     -0.13203524
N       1.11056735     -1.63473143     -0.15444692
C       2.32172618     -1.07479487      0.05823583
C       2.51862780      0.27203076      0.29710145
C       1.40281667      1.09957325      0.31970718
C       0.12898057      0.55728493      0.10361014
C      -1.02781738      1.35679041      0.11754401
H      -3.17282857      1.40687478     -0.08965181
H      -3.35323031     -1.03638180     -0.50523985
H      -1.31548503     -2.44040710     -0.52906842
H       3.15932904     -1.76599894      0.02987485
H       3.51439162      0.66711466      0.46134473
H       1.52949983      2.16276536      0.50538804
H      -0.95690997      2.42665395      0.29869466
