42
CC[P+](c1ccccc1)(c1ccccc1)c1ccccc1.[Br-]
C      -0.41660930     -1.30372465      2.91514799
C      -0.83209365     -0.06878619      2.13899586
P      -0.21359678      0.04792878      0.42849914
C       1.56724658     -0.06062664      0.44066018
C       2.30778939      0.58803782      1.43838289
C       3.70272617      0.52793475      1.44961542
C       4.37846780     -0.17195243      0.45383200
C       3.65937882     -0.80273097     -0.55757441
C       2.26448416     -0.74098614     -0.56696442
C      -0.97945692     -1.26778233     -0.49827956
C      -2.02566928     -1.01224748     -1.39426534
C      -2.62793766     -2.05045431     -2.10889905
C      -2.19502477     -3.36202378     -1.93445235
C      -1.16065578     -3.63540954     -1.04443338
C      -0.56039106     -2.59583731     -0.33165656
C      -0.66852680      1.64256251     -0.23908092
C       0.00476209      2.14610087     -1.36175447
C      -0.33882808      3.38288123     -1.91029584
C      -1.36622540      4.13336825     -1.34612355
C      -2.05011983      3.64491015     -0.23607471
C      -1.70468472      2.40725346      0.31211118
Br      0.00000000      0.00000000      0.00000000
H      -0.85661435     -2.20572395      2.48272891
H       0.66930843     -1.42684206      2.92041917
H      -0.75859750     -1.23202374      3.95233733
H      -1.92673712     -0.03304543      2.10953418
H      -0.49811097      0.82010304      2.68509440
H       1.80080519      1.15663071      2.21344464
H       4.26091332      1.03421546      2.23270669
H       5.46405867     -0.21688914      0.46015226
H       4.18315654     -1.33819003     -1.34505362
H       1.72473620     -1.22135257     -1.37957626
H      -2.38572757      0.00194831     -1.54812371
H      -3.43643476     -1.83188844     -2.80164660
H      -2.66399838     -4.16915411     -2.49041787
H      -0.81973444     -4.65758471     -0.90319593
H       0.24733283     -2.82903896      0.35874771
H       0.80639289      1.57160747     -1.81978925
H       0.19707733      3.75774120     -2.77822778
H      -1.63459279      5.09624393     -1.77201613
H      -2.85576339      4.22683592      0.20401503
H      -2.26250512      2.04799099      1.17147675
