68
C[C@H](CCC(=O)O)[C@H]1CC[C@H]2[C@@H]3C[C@H](O)[C@@H]4C[C@H](O)CC[C@]4(C)[C@H]3CC[C@@]21C
C       3.64170339     -2.40731428     -0.89377491
C       3.90149138     -1.12960410     -0.08531991
C       5.00061483     -1.45050743      0.97176279
C       6.01496893     -0.32952892      1.21572543
C       6.90636781     -0.08125335      0.02660807
O       7.08684798     -0.81330968     -0.93079638
O       7.56706747      1.08939307      0.12948132
C       2.60465455     -0.58321512      0.58330709
C       2.83792938      0.77631877      1.30104039
C       1.50125667      1.52962651      1.30014105
C       0.51035236      0.52036385      0.74373764
C      -0.82379461      1.03868166      0.18920423
C      -1.56768521      1.88960903      1.22225416
C      -2.90626238      2.36568196      0.67640815
O      -3.53671917      3.17377974      1.66675382
C      -3.82526522      1.21144513      0.23311184
C      -4.45481799      0.44272606      1.40973642
C      -5.57243586     -0.49525692      0.93307154
O      -5.54996169     -1.65722136      1.75888875
C      -5.43768883     -0.89926104     -0.53759372
C      -3.97082395     -1.08729941     -0.91586680
C      -3.12074910      0.21843351     -0.76115036
C      -3.04167486      0.90830373     -2.14535160
C      -1.68824292     -0.18023792     -0.23632119
C      -0.90693178     -1.11611999     -1.19467293
C       0.48081586     -1.51785296     -0.66123172
C       1.33852370     -0.29405397     -0.28546689
C       1.71192172      0.50815745     -1.55568966
H       3.11923231     -3.15976403     -0.29383319
H       3.05548644     -2.20092801     -1.79116200
H       4.58057516     -2.84747739     -1.24802838
H       4.28640552     -0.37806417     -0.78526008
H       4.52882212     -1.71438209      1.92728869
H       5.56673560     -2.34147971      0.66788039
H       5.51572500      0.60260730      1.48964858
H       6.66534863     -0.61742606      2.04990473
H       8.12141485      1.12320669     -0.67857833
H       2.30877746     -1.31162305      1.35426358
H       3.58212184      1.38720324      0.77859951
H       3.19340095      0.61466620      2.32450151
H       1.23030014      1.85626195      2.30965593
H       1.56525341      2.42328768      0.66904347
H       0.25975395     -0.14657227      1.58638141
H      -0.62893732      1.67393202     -0.68227545
H      -1.71467816      1.33304524      2.15747670
H      -0.96845080      2.76763508      1.49626655
H      -2.71669252      3.02405720     -0.17995348
H      -4.39133921      3.46813072      1.31017679
H      -4.66867830      1.69469358     -0.28347160
H      -4.88682954      1.13409762      2.14355272
H      -3.68822374     -0.11855388      1.95794009
H      -6.54540683     -0.01384523      1.08232586
H      -6.28662606     -2.23046436      1.48587728
H      -5.88060671     -0.12973737     -1.18082718
H      -5.98152293     -1.83133233     -0.72985565
H      -3.90845959     -1.46860353     -1.94248426
H      -3.56870998     -1.88459465     -0.27709481
H      -4.03635989      1.22453919     -2.48131788
H      -2.40487683      1.79664969     -2.12873248
H      -2.65152928      0.23792652     -2.91659249
H      -1.84854308     -0.76983915      0.67978922
H      -0.78337998     -0.64318098     -2.17419312
H      -1.47740836     -2.03542266     -1.36993286
H       0.34644528     -2.16387362      0.21635287
H       0.96844714     -2.13077195     -1.42375301
H       2.33320213      1.38051892     -1.33193943
H       0.83578853      0.87681833     -2.09446695
H       2.27256022     -0.11182469     -2.26197041
