20
C=C[Si](C)(OC)OC
C       2.73073210      0.59905089     -0.72416295
C       1.52931777      0.18275893     -1.14580905
Si      0.09765303     -0.31118609     -0.06764110
C       0.45252083     -2.01897801      0.62067269
O      -0.09710869      0.78723948      1.17893525
C      -0.37057541      2.14279389      0.85951895
O      -1.29818116     -0.31019403     -0.98920079
C      -2.51656417     -0.71107736     -0.38272396
H       3.50433408      0.86639848     -1.43819294
H       2.97637033      0.68949729      0.33080735
H       1.31413980      0.10705599     -2.20598895
H       1.38685955     -2.02105264      1.19009590
H      -0.35113341     -2.34263501      1.28866663
H       0.54163804     -2.75190970     -0.18672339
H      -0.50157026      2.69060033      1.79805771
H      -1.29728950      2.24160076      0.28322533
H       0.46296997      2.60347032      0.31839619
H      -2.76536335     -0.08019074      0.47798445
H      -2.48306996     -1.76450397     -0.08374419
H      -3.31567959     -0.59873881     -1.12217313
