35
O=S(=O)(O)c1cc(O)c2cc(Nc3ccccc3)ccc2c1
O       6.37614300      0.56235944      1.36410327
S       5.72303015      0.91643761      0.12539743
O       5.67484226      2.27807078     -0.36129175
O       6.42134137      0.07769974     -1.06359471
C       4.07299118      0.28408243      0.19098793
C       3.88075731     -1.09681014      0.16437270
C       2.58027056     -1.59323988      0.19439162
O       2.37682903     -2.94906791      0.17491037
C       1.46195717     -0.73274616      0.24441951
C       0.13249244     -1.20796600      0.27102171
C      -0.97080848     -0.34326314      0.32416679
N      -2.26538875     -0.89010014      0.31193853
C      -3.50003514     -0.38386618     -0.13009160
C      -3.61142762      0.62349257     -1.09483639
C      -4.86081473      1.12351965     -1.47518288
C      -6.02033588      0.62706549     -0.88613027
C      -5.93006826     -0.36965881      0.08106915
C      -4.67896293     -0.86769724      0.45620322
C      -0.72586821      1.03025591      0.33995634
C       0.57965380      1.53069865      0.31595056
C       1.67993093      0.66433398      0.26725206
C       2.99010471      1.16506143      0.24059339
H       6.76021404      0.72654979     -1.71704043
H       4.73788833     -1.76319479      0.12584227
H       3.23505311     -3.40411442      0.17977868
H      -0.03907557     -2.28254010      0.23845490
H      -2.31457436     -1.83901119      0.66555883
H      -2.72518556      1.00920125     -1.59082377
H      -4.92437242      1.89758100     -2.23529450
H      -6.99133665      1.01599871     -1.18051666
H      -6.83086271     -0.75775811      0.54883681
H      -4.63074210     -1.63430478      1.22542990
H      -1.55121029      1.73415789      0.40672878
H       0.72340385      2.60894434      0.34140687
H       3.16416644      2.23982835      0.25781823
