55
COc1cc2c(cc1OC)[C@@]13CCN4CC5=CCOC6CC(=O)N2C1[C@H]6[C@H]5C[C@H]43
C       4.95874126      3.25121182     -0.34624230
O       4.90835523      1.84932037     -0.57539525
C       3.72236524      1.20509476     -0.31069239
C       2.56347176      1.84848496      0.14303330
C       1.42686657      1.09113476      0.37181268
C       1.41794914     -0.28949397      0.15679414
C       2.56083906     -0.94364273     -0.28925656
C       3.72073629     -0.19634518     -0.53039231
O       4.90558460     -0.73337768     -0.97360463
C       4.94408834     -2.12888759     -1.23167163
C       0.08286019     -0.88849015      0.52388456
C       0.20075687     -1.67956870      1.83299326
C      -1.08710957     -2.48197436      1.86501976
N      -1.39090035     -2.79156580      0.45998536
C      -2.82515603     -2.70565848      0.16375843
C      -3.26804865     -1.27839294     -0.06175979
C      -4.30034311     -0.73323106      0.60485918
C      -4.69161390      0.69979701      0.48270084
O      -3.64920481      1.48874476      1.04009298
C      -2.64577927      1.91184594      0.10662172
C      -1.81571564      2.98465211      0.85698926
C      -0.29851479      2.83608533      0.79647099
O       0.41941445      3.83418706      0.78283707
N       0.15220100      1.52853365      0.76867176
C      -0.78518651      0.39629341      0.71311562
C      -1.75895794      0.76067366     -0.41639110
C      -2.43192061     -0.47172745     -1.03574008
C      -1.29825765     -1.34882558     -1.59000527
C      -0.53146653     -1.94832375     -0.41212881
H       5.96870180      3.59326320     -0.59183326
H       4.77615530      3.48730833      0.70722594
H       4.26061179      3.78342623     -1.00050577
H       2.53931321      2.91662052      0.31428392
H       2.53631834     -2.01800592     -0.42637100
H       4.23074704     -2.40669853     -2.01461262
H       4.77247936     -2.70438060     -0.31625809
H       5.94693736     -2.37424795     -1.59476675
H       1.05888182     -2.36410533      1.80675612
H       0.31386081     -1.04481827      2.71891432
H      -1.87319076     -1.88374261      2.34173169
H      -0.97035384     -3.40071960      2.44888396
H      -3.40436094     -3.19123834      0.95951463
H      -3.03926390     -3.28999266     -0.74012885
H      -4.86764698     -1.32857137      1.31558616
H      -4.93236775      0.98932089     -0.54640578
H      -5.58945128      0.87311131      1.08550666
H      -3.15104958      2.39520889     -0.73966902
H      -2.06002264      3.96318058      0.42351020
H      -2.09175252      3.03431548      1.91792294
H      -1.31705908      0.36446551      1.67331404
H      -1.17873710      1.21013926     -1.24008120
H      -3.06242311     -0.15961381     -1.87813739
H      -0.62272030     -0.76395078     -2.22672785
H      -1.70172478     -2.14228443     -2.23252284
H       0.25206305     -2.60454420     -0.81016172
