26
Oc1ccc(Cc2ccccc2)cc1
O       4.55503739      1.46191162      0.75399212
C       3.39758836      0.89952611      0.30284713
C       2.74203669     -0.08958022      1.02786148
C       1.55846713     -0.63713334      0.52739039
C       1.02609178     -0.19560034     -0.69444974
C      -0.25298481     -0.79268923     -1.23868418
C      -1.47105393     -0.54315117     -0.37766295
C      -2.14834912     -1.61259444      0.22565369
C      -3.27655340     -1.38195180      1.01502178
C      -3.74014856     -0.08210906      1.20830702
C      -3.07705115      0.98867293      0.61236322
C      -1.94945302      0.76031981     -0.17785925
C       1.70630339      0.80124260     -1.40961459
C       2.88988433      1.34734900     -0.91016500
H       4.77625655      1.06262247      1.61103068
H       3.13011395     -0.44447781      1.97696976
H       1.04567300     -1.40749414      1.09958113
H      -0.09357161     -1.87053392     -1.37410316
H      -0.46141504     -0.40178420     -2.24330859
H      -1.80138302     -2.63373549      0.08548384
H      -3.79418882     -2.21721408      1.47929898
H      -4.61776292      0.09676313      1.82366271
H      -3.43614016      2.00318083      0.76376284
H      -1.43988765      1.60680064     -0.63331110
H       1.31925758      1.16140912     -2.35989092
H       3.41323306      2.12025097     -1.46552286
