55
C=CCN(CC=C)c1cc(NC(C)=O)c(N=Nc2c(Cl)cc([N+](=O)[O-])cc2[N+](=O)[O-])cc1OC
C      -6.13120122      1.80540365     -0.15438346
C      -4.81689480      1.59665491     -0.31681705
C      -4.21888653      0.64233080     -1.31389971
N      -3.47192704     -0.42104286     -0.63449899
C      -4.23825567     -1.37581723      0.17140605
C      -4.99315210     -2.30329232     -0.73925975
C      -6.32599398     -2.44370210     -0.75819308
C      -2.07676555     -0.37240252     -0.51859455
C      -1.40685484      0.87161910     -0.45768761
C      -0.01579480      0.99047696     -0.32690692
N       0.65365822      2.23894194     -0.25432644
C       0.10462968      3.50638692     -0.30769584
C       1.15017635      4.58709158     -0.19403847
O      -1.08199612      3.79371765     -0.42164458
C       0.75824625     -0.17866691     -0.26264977
N       2.16775223     -0.12077663     -0.18210541
N       2.54771188     -0.43689188      0.96845236
C       3.95647457     -0.47983922      1.01272134
C       4.65067726     -1.68330999      0.78558845
Cl      3.80414078     -3.14350363      0.40448171
C       6.04866735     -1.75075248      0.86987998
C       6.77952928     -0.60345431      1.20293001
N       8.24385488     -0.67374121      1.29546741
O       8.85056750      0.38017350      1.52402588
O       8.77498463     -1.77962951      1.13596086
C       6.12614502      0.60610172      1.45314504
C       4.72741500      0.64125530      1.35124691
N       4.06784477      1.89826720      1.62513024
O       3.44456731      2.42866628      0.69538321
O       4.21644122      2.36800018      2.75904133
C       0.12877692     -1.42614776     -0.35266772
C      -1.26404532     -1.53401159     -0.46761096
O      -1.88032609     -2.75279412     -0.63442224
C      -1.20656662     -3.89783541     -0.12565662
H      -6.49050104      2.51721357      0.58212613
H      -6.86956531      1.27346156     -0.74570195
H      -4.11992280      2.15994124      0.29826128
H      -5.00836306      0.19413429     -1.92987116
H      -3.58876782      1.19392544     -2.02233453
H      -4.93077091     -0.83885615      0.83116213
H      -3.61074028     -1.96204637      0.85230815
H      -4.38816194     -2.89072154     -1.42518161
H      -6.79950905     -3.13405773     -1.44874481
H      -6.96698955     -1.87238132     -0.09432123
H      -2.00210462      1.77470437     -0.48873216
H       1.66415066      2.18639742     -0.12893370
H       1.52378248      4.62978526      0.83235265
H       0.70808864      5.55374972     -0.45239826
H       1.97512246      4.39294704     -0.88497824
H       6.55136559     -2.69917705      0.68250606
H       6.67979450      1.50447605      1.72582792
H       0.76060121     -2.30779624     -0.36008303
H      -1.92647115     -4.72212391     -0.09366346
H      -0.84374724     -3.73479765      0.89501001
H      -0.39089118     -4.19625401     -0.79292676
