40
C=CC(C)(CCC=C(C)C)OC(=O)C(C)C
C      -0.72219521      3.14122448     -1.85265245
C      -0.40895293      3.00159952     -0.55577938
C      -0.66174678      1.78187531      0.32935059
C      -1.60138951      2.24020989      1.45724009
C       0.68904402      1.28107375      0.89722010
C       1.63313771      0.70495353     -0.16602648
C       2.90969237      0.20310931      0.45372762
C       3.20316677     -1.06619107      0.79764078
C       4.54611731     -1.41426518      1.38366027
C       2.26261749     -2.23291021      0.66561084
O      -1.31025913      0.77980864     -0.49204051
C      -1.68493355     -0.41748128      0.03170272
O      -1.53635978     -0.77056059      1.19180827
C      -2.32924683     -1.26185300     -1.05294291
C      -2.27317909     -2.74315030     -0.68973166
C      -3.76604799     -0.80453227     -1.27264453
H      -0.49274670      4.06078216     -2.38236798
H      -1.21082171      2.35278111     -2.41617317
H       0.07995265      3.84263622     -0.06430254
H      -1.19722974      3.10488344      1.99630306
H      -2.58723408      2.50975542      1.05977677
H      -1.76959570      1.45111908      2.19642672
H       0.50803319      0.50727979      1.65330737
H       1.19357504      2.10047127      1.42846057
H       1.90034862      1.47736777     -0.89693587
H       1.14164011     -0.08697233     -0.73927010
H       3.66173243      0.97473153      0.61727936
H       4.42537742     -1.83109671      2.38889938
H       5.20417597     -0.54244898      1.46200734
H       5.05140705     -2.15638552      0.75690267
H       2.16098272     -2.74452798      1.62876934
H       1.25648138     -1.94558779      0.35179313
H       2.65159110     -2.94876150     -0.06569118
H      -1.75088854     -1.12475953     -1.97521782
H      -2.84648984     -2.95548168      0.21953539
H      -2.68116851     -3.35755356     -1.49905116
H      -1.24004567     -3.06077914     -0.51088632
H      -4.35991646     -0.90811067     -0.35764946
H      -4.24709050     -1.39194265     -2.06147390
H      -3.80153511      0.24968974     -1.56815777
