20
CCC(CC)O[N+](=O)[O-]
C      -1.54756292     -1.87513247     -0.21586198
C      -0.27474476     -1.28404247     -0.80099918
C       0.25841545     -0.06698500     -0.02406137
C      -0.68925395      1.14083480     -0.14854638
C      -0.17397014      2.36026199      0.60765220
O       1.51041428      0.32746080     -0.59911528
N       2.63767692     -0.32846633     -0.04711373
O       2.43629227     -1.18283269      0.81648965
O       3.69695958      0.06064584     -0.53548879
H      -1.81424896     -2.79286207     -0.75006885
H      -2.39184121     -1.18599809     -0.30574552
H      -1.41393803     -2.12620746      0.84101871
H       0.49183349     -2.06785689     -0.82578188
H      -0.44269943     -1.01089488     -1.85039523
H       0.34982359     -0.29927895      1.04485482
H      -1.68184803      0.89024455      0.23948068
H      -0.80473955      1.41685538     -1.20380824
H      -0.89138771      3.18318958      0.52744920
H       0.78125012      2.70871517      0.20297175
H      -0.03643101      2.13234919      1.66941120
