24
ICC1CCC(CI)CC1
I      -4.25129652      1.21908877      0.89916403
C      -2.92674554     -0.17090055     -0.06015786
C      -1.47631156     -0.03575227      0.43776467
C      -0.68148880     -1.29622354      0.05703400
C       0.77998409     -1.20839531      0.49432625
C       1.47631216      0.03575319     -0.08254529
C       2.92674454      0.17090053      0.41538281
I       4.25130096     -1.21908275     -0.54394148
C       0.68148810      1.29622357      0.29818392
C      -0.77998431      1.20839441     -0.13911082
H      -2.97552271     -0.03857383     -1.14711825
H      -3.30107172     -1.17871842      0.15523578
H      -1.47423075      0.04037826      1.53369462
H      -1.13821545     -2.17820958      0.52229045
H      -0.72526027     -1.45192402     -1.02867653
H       1.29226192     -2.12198269      0.17445058
H       0.82646114     -1.18736981      1.59073640
H       1.47423516     -0.04037575     -1.17847522
H       2.97551808      0.03856884      1.50234335
H       3.30107078      1.17872002      0.19999621
H       1.13821536      2.17821031     -0.16707065
H       0.72525799      1.45192379      1.38389463
H      -1.29226223      2.12198215      0.18076098
H      -0.82646043      1.18736467     -1.23552111
