18
CC1CC1(C(=O)O)C(=O)O
C      -1.75213095     -1.17278390     -0.40248138
C      -0.31090052     -1.07941548     -0.03130200
C       0.07537189     -0.57899830      1.32784074
C       0.43275912      0.25884922      0.09384143
C      -0.29545239      1.53730242     -0.09050131
O      -0.33285818      2.43146080      0.73923340
O      -0.93017970      1.64802413     -1.27497193
C       1.84907586      0.28522428     -0.35062286
O       2.20548132      0.23755631     -1.51656557
O       2.74428906      0.35966763      0.65622099
H      -1.86952839     -1.08256679     -1.48676387
H      -2.36056641     -0.39942143      0.07703537
H      -2.15192532     -2.14595834     -0.09988728
H       0.24682017     -1.91675107     -0.43988570
H       0.87358832     -1.09363399      1.85212901
H      -0.69593769     -0.19965647      1.99021389
H      -1.34019334      2.53691945     -1.24594067
H       3.61228716      0.37418154      0.20240774
