38
CC12CCc3c(ccc4cc(O)ccc34)C1CCC2=O
C      -2.54125568      0.12594963     -1.98309510
C      -2.39287238     -0.26299425     -0.51085373
C      -1.66518828     -1.59435176     -0.32502332
C      -0.19062574     -1.49604790     -0.70056099
C       0.52723308     -0.30216290     -0.10065093
C      -0.21616560      0.80166393      0.37490118
C       0.45917590      1.90119812      0.92090148
C       1.84866858      1.92454198      0.98870581
C       2.60659834      0.85780438      0.49836307
C       4.00835281      0.91468785      0.55997181
C       4.78025902     -0.12605114      0.06306444
O       6.13579403     -0.01284108      0.14961313
C       4.18093981     -1.23714224     -0.50490247
C       2.78538610     -1.30429159     -0.56813761
C       1.95767588     -0.27021016     -0.06468713
C      -1.72733298      0.85658310      0.31613142
C      -2.36337058      0.73551594      1.70924228
C      -3.82927083      0.43848860      1.43503009
C      -3.75911101     -0.34789610      0.15290192
O      -4.70767054     -0.97693816     -0.30139675
H      -1.57586071      0.36174006     -2.44202993
H      -3.18689506      1.00458877     -2.09713711
H      -3.00103337     -0.68474702     -2.55956078
H      -2.14296514     -2.38278357     -0.92066206
H      -1.74517566     -1.92772850      0.71892048
H      -0.08704292     -1.44920259     -1.79128888
H       0.28104395     -2.42523786     -0.36073549
H      -0.09641097      2.75867662      1.29569844
H       2.33716281      2.79601079      1.41989166
H       4.51022237      1.77622279      0.99382976
H       6.53906914     -0.80835839     -0.23472454
H       4.77039524     -2.05636084     -0.90360933
H       2.35122978     -2.18762918     -1.02939702
H      -2.01515601      1.82939850     -0.11040693
H      -2.24517381      1.64760178      2.30388585
H      -1.91207164     -0.08529193      2.28149750
H      -4.39661533      1.35643535      1.25717619
H      -4.28194259     -0.14884105      2.23666884
