19
CC(=O)OCC(S)CS
C       3.48961061     -0.49352755      0.80514490
C       2.42101555      0.26946709      0.08485002
O       2.63065906      1.13155446     -0.75647186
O       1.19263326     -0.13161041      0.51037225
C       0.09739270      0.51968423     -0.15459699
C      -1.23398677     -0.06176720      0.34613169
S      -1.38470125     -1.81568566     -0.19913037
C      -2.40331694      0.79034374     -0.16788741
S      -4.01760244      0.31907444      0.53839555
H       3.43366553     -0.28733180      1.87686461
H       4.47036661     -0.17704268      0.43872072
H       3.37555876     -1.56319140      0.61206377
H       0.19254036      0.40402139     -1.24210956
H       0.14283085      1.58838742      0.08953332
H      -1.22051576     -0.07368497      1.44261136
H      -2.34115033     -2.15872981      0.67723339
H      -2.24039889      1.83844963      0.10642314
H      -2.47503057      0.75023980     -1.26068215
H      -4.12957033     -0.84865073     -0.11374348
