20
O=C(O)[C@@H]1CC[C@H](C(=O)O)SS1
O       2.96852765      1.24991952     -0.13295195
C       2.47725600      0.28507713      0.43979889
O       2.58850465      0.13423158      1.77823385
C       1.74438701     -0.82971253     -0.29891261
C       0.74268862     -0.28580437     -1.33139422
C      -0.47104314      0.47702306     -0.77286084
C      -1.42580497     -0.36189900      0.09159202
C      -2.67967204      0.39516026      0.49235929
O      -3.77795351     -0.10308723      0.68983170
O      -2.50197799      1.71793287      0.67625111
S      -0.58004783     -0.91528980      1.61100428
S       0.93350813     -2.03970755      0.80564853
H       2.09685087     -0.65065502      2.10282762
H       2.52314051     -1.39054126     -0.82921593
H       1.27404640      0.39190768     -2.01253835
H       0.38219930     -1.11236987     -1.95841442
H      -0.11987164      1.35976369     -0.22218521
H      -1.03765034      0.87200650     -1.62695831
H      -1.75980821     -1.23621130     -0.48019124
H      -3.37727949      2.04225562      0.97807580
