22
Clc1ccc(-c2ccccc2Cl)cc1
Cl      5.16995386      0.32037738      0.71726007
C       3.46837163      0.21117712      0.48819274
C       2.62299874      1.10203719      1.14492565
C       1.24069265      1.01336489      0.95749351
C       0.69166472      0.03306490      0.11491365
C      -0.76158982     -0.05228438     -0.08674360
C      -1.38839653      0.87903639     -0.93592019
C      -2.76644862      0.83832608     -1.16246895
C      -3.54551547     -0.13446336     -0.54290790
C      -2.94715233     -1.06616706      0.30410502
C      -1.56667900     -1.02721553      0.53226155
Cl     -0.90405768     -2.20950040      1.60932500
C       1.56194813     -0.85348061     -0.54012636
C       2.94447994     -0.76642563     -0.35390128
H       3.02970818      1.86402604      1.80413898
H       0.58900641      1.71125806      1.47993886
H      -0.79527477      1.64525877     -1.43316670
H      -3.22910574      1.56684577     -1.82417753
H      -4.61806556     -0.16761154     -0.71776693
H      -3.56167896     -1.82163588      0.78754847
H       1.16322950     -1.62239331     -1.19937889
H       3.60191073     -1.46359487     -0.86607872
