51
CCCCCCCC(=O)N(C)c1ccc(S(=O)(=O)N(C)C)cc1
C      -7.46715743      2.30814511      0.33173525
C      -7.19319259      0.85215475      0.67559832
C      -5.98780185      0.26332969     -0.06253416
C      -4.65576001      0.88909164      0.35936485
C      -3.44776727      0.31118387     -0.38646698
C      -3.17481990     -1.16084428     -0.05681191
C      -1.88871096     -1.67647108     -0.71302059
C      -0.60704888     -1.20612765     -0.02361765
O      -0.68812662     -0.53289334      1.00493069
N       0.60762010     -1.61494840     -0.61440876
C       0.63903586     -2.63455712     -1.66737553
C       1.88517690     -1.16697687     -0.10111775
C       3.05726221     -1.91676935     -0.32045269
C       4.30423347     -1.48766432      0.15241683
C       4.40252815     -0.28125786      0.84222778
S       5.97884341      0.25493621      1.47439331
O       6.82603140     -0.91592400      1.56869671
O       5.72373822      1.08681749      2.63118242
N       6.57948664      1.24391137      0.22558189
C       6.96626801      0.57469367     -1.02727355
C       5.90232631      2.53405560      0.01148968
C       3.26026149      0.47532163      1.09056075
C       2.01922949      0.03779169      0.60924635
H      -6.66564195      2.96284342      0.68552595
H      -7.57453899      2.44358103     -0.74906596
H      -8.39637824      2.63733799      0.80798969
H      -8.08017066      0.26237202      0.41461530
H      -7.05392846      0.75203800      1.75828983
H      -5.96848836     -0.81297506      0.14178549
H      -6.12641459      0.37928539     -1.14419529
H      -4.67969524      1.96707888      0.16391995
H      -4.51336226      0.76590020      1.43975077
H      -3.59580712      0.42522173     -1.46734173
H      -2.57146600      0.91608599     -0.12626152
H      -4.00638570     -1.77100074     -0.42739307
H      -3.13289599     -1.30268876      1.02951948
H      -1.87334226     -1.35980563     -1.76137991
H      -1.90600846     -2.77162121     -0.66545696
H       1.43085543     -2.41041788     -2.38970738
H      -0.28855478     -2.68269784     -2.23817063
H       0.80371287     -3.61297684     -1.20507759
H       3.03073739     -2.87539234     -0.83084256
H       5.18353988     -2.10703714     -0.01188395
H       7.55540318     -0.32515258     -0.83103706
H       7.59832328      1.24331048     -1.62104950
H       6.08656137      0.31294378     -1.62180520
H       4.96421630      2.40098296     -0.53436896
H       5.70481042      3.04188348      0.95928427
H       6.55092566      3.19558965     -0.57233316
H       3.31645356      1.40346666      1.65545560
H       1.16588358      0.68484592      0.79482907
