49
Cn1nnnc1SCC1=C(C(=O)O)N2C(=O)[C@@H](NC(=O)[C@H](O)c3ccccc3)[C@H]2SC1
C      -8.28657578      0.89587932     -0.86143585
N      -7.80168550     -0.36435045     -0.37430769
N      -8.65710598     -1.33920536     -0.01928890
N      -7.89042009     -2.34287179      0.38733564
N      -6.55771670     -2.01824611      0.29041125
C      -6.52218697     -0.79399874     -0.18185669
S      -5.12118938      0.15002461     -0.53201292
C      -3.82987556     -0.90725424      0.19771703
C      -2.47516372     -0.27137200     -0.03618233
C      -1.76861121      0.36003476      0.93026592
C      -2.25642311      0.42300287      2.33194141
O      -2.65212635      1.42143359      2.90439740
O      -2.20072086     -0.78203129      2.92530996
N      -0.58743063      0.98757984      0.66987022
C       0.52595229      1.14679937      1.42302782
O       0.73124521      1.04199220      2.60930398
C       1.38404873      1.36442069      0.13971747
N       2.50684816      0.41928807     -0.06005895
C       3.27701717      0.44383538     -1.20512643
O       3.14088599      1.30060298     -2.07560933
C       4.30231919     -0.70438339     -1.29061427
O       3.75174318     -1.88017212     -0.68306629
C       5.62103433     -0.32090969     -0.64971245
C       6.43015467      0.65087055     -1.26368310
C       7.64438112      1.03551599     -0.69171207
C       8.06775114      0.45501749      0.50140723
C       7.27791546     -0.50930778      1.12311956
C       6.06292521     -0.89469587      0.55232160
C       0.05251922      1.08053265     -0.62603816
S      -0.11753534     -0.51909412     -1.48069577
C      -1.93755331     -0.46098841     -1.44046104
H      -7.92972686      1.68902241     -0.20021434
H      -7.91710114      1.04479872     -1.87923368
H      -9.37992265      0.89044041     -0.86706587
H      -3.85639604     -1.90453000     -0.25603946
H      -4.05936310     -1.03892084      1.25798082
H      -2.44894702     -0.59643508      3.85527497
H       1.72799524      2.40349106      0.05667305
H       2.67082361     -0.35376632      0.58202410
H       4.46991325     -0.94357677     -2.34731228
H       3.02728398     -2.17014243     -1.26723283
H       6.11419354      1.12206726     -2.19342293
H       8.25845316      1.78999267     -1.17700902
H       9.01253761      0.75406009      0.94728684
H       7.60696793     -0.96404762      2.05418022
H       5.46521103     -1.65279226      1.05475769
H      -0.30073459      1.93763764     -1.21163499
H      -2.27964233     -1.41388618     -1.85691935
H      -2.29596616      0.33863822     -2.09763726
