44
C[C@]12CC[C@@H]3[C@H]4CCC(=O)C=C4CC[C@H]3[C@@H]1CCC2=O
C      -2.70635914     -1.70151456      0.50912415
C      -2.40410841     -0.67971123     -0.60243663
C      -1.48294017     -1.27357985     -1.66279724
C      -0.05751751     -1.46814326     -1.11411884
C       0.53916428     -0.20194676     -0.44385815
C       1.92211115     -0.47425950      0.22289457
C       2.92864826     -1.00420954     -0.82098499
C       4.36326136     -0.98663620     -0.31980328
C       4.74249187      0.40110317      0.12624697
O       5.87703464      0.85180265     -0.00596566
C       3.71669058      1.19704574      0.83874098
C       2.44494284      0.77088536      0.92935519
C       1.46259440      1.51045218      1.80385410
C       0.13296420      1.76122730      1.10080565
C      -0.45336317      0.44946885      0.56684221
C      -1.79166934      0.65928143     -0.14202423
C      -2.93511726      1.36432116      0.57887659
C      -4.12575242      1.12895003     -0.36281558
C      -3.74461807     -0.15370183     -1.08277525
O      -4.44732859     -0.70102545     -1.92182377
H      -3.40790515     -1.31274730      1.25496937
H      -1.80930325     -2.02800752      1.04162078
H      -3.17528843     -2.59668359      0.08259150
H      -1.44442722     -0.61606675     -2.54124641
H      -1.87325960     -2.23305946     -2.02345200
H       0.57739122     -1.78230731     -1.95035682
H      -0.05214079     -2.29651057     -0.39571795
H       0.70149328      0.52755428     -1.25299034
H       1.79018055     -1.24716895      0.99322748
H       2.67186811     -2.03146601     -1.10377380
H       2.86722478     -0.39650025     -1.73404982
H       4.49897563     -1.67403814      0.52201808
H       5.03568961     -1.29233370     -1.12854153
H       4.07979208      2.09169781      1.33221825
H       1.87238969      2.47056707      2.14022900
H       1.28663900      0.91179893      2.70686185
H       0.27372672      2.47662648      0.28044432
H      -0.55870779      2.22394463      1.81408512
H      -0.59067520     -0.22360696      1.42224790
H      -1.58308858      1.27562706     -1.03397049
H      -2.75044625      2.43422836      0.71648398
H      -3.12122681      0.92841556      1.56634552
H      -5.05868470      1.00583754      0.19127299
H      -4.21134639      1.93438913     -1.09785377
