52
CC[C@]12CC[C@@H]3C4=C(CC[C@H]3[C@@H]1CC[C@@H]2O)CC(OC)=CC4
C      -3.43111120     -2.35792978      0.58205159
C      -2.88166876     -0.96111182      0.86629019
C      -2.64800531     -0.03428307     -0.37933986
C      -1.89089737     -0.76991468     -1.49691153
C      -0.44389736     -1.09441064     -1.07703067
C       0.34790858      0.16584801     -0.64182399
C       1.79809323     -0.08416519     -0.23127235
C       2.40715234      0.67852856      0.70566850
C       1.71963738      1.82407375      1.41441026
C       0.36009545      2.20783703      0.82825831
C      -0.42685747      0.95040812      0.45912275
C      -1.83551435      1.25100563     -0.05534451
C      -2.78786766      2.07230826      0.80635705
C      -4.17046413      1.78204927      0.19781990
C      -3.96045409      0.65068883     -0.82982925
O      -5.07576301     -0.21250679     -0.88196572
C       3.84796087      0.47144214      1.12490781
C       4.59081868     -0.60059066      0.36524645
O       5.90868156     -0.71080827      0.75798570
C       6.71988989     -1.68779138      0.11798678
C       3.98453440     -1.33616064     -0.58312020
C       2.54148822     -1.17940591     -0.96429675
H      -3.64211836     -2.86762102      1.52856987
H      -2.70399055     -2.97319865      0.04430040
H      -4.35889236     -2.33786530      0.00783252
H      -1.94861597     -1.10784950      1.41776563
H      -3.56336831     -0.47733915      1.57551002
H      -1.85368461     -0.14212198     -2.39743657
H      -2.41079067     -1.68454938     -1.80029434
H       0.04809339     -1.56791871     -1.93511836
H      -0.44143739     -1.83449035     -0.26823786
H       0.40792429      0.80694083     -1.53534697
H       2.36279956      2.71221136      1.40005081
H       1.58767977      1.54263812      2.46700973
H      -0.18450350      2.81336736      1.56140816
H       0.50387873      2.83672657     -0.05981429
H      -0.48967034      0.33797432      1.36643943
H      -1.70674544      1.82553284     -0.98873198
H      -2.55541514      3.14147704      0.77338217
H      -2.75550375      1.75636623      1.85489084
H      -4.57212125      2.67103699     -0.30144287
H      -4.88940497      1.50447886      0.97683547
H      -3.83545856      1.08916196     -1.82840625
H      -5.85708020      0.32851606     -1.08773927
H       4.38988983      1.41674481      0.99345540
H       3.87076839      0.22280660      2.19329707
H       6.80810524     -1.48300363     -0.95387974
H       7.72158262     -1.63126414      0.55435780
H       6.33241003     -2.69629810      0.29518815
H       4.51705784     -2.10603867     -1.12936292
H       2.49448558     -0.98024176     -2.04164287
H       2.05036619     -2.14129041     -0.77750910
