53
NC(=O)c1cccn2cc(-c3cccc(-c4cncc(OC[C@H]5CCCO5)c4)c3)nc12
N       7.51140513     -1.46605610     -1.59975094
C       8.21362900     -0.35251138     -1.25708957
O       9.41534618     -0.27094110     -1.49032562
C       7.43795210      0.73871894     -0.59248660
C       8.09769778      1.86421292     -0.23484978
C       7.42346406      2.97701942      0.41782948
C       6.10851891      2.87910126      0.67064269
N       5.43167063      1.71999395      0.30132268
C       4.10529335      1.40454728      0.45841564
C       3.95071054      0.14249594     -0.07572581
C       2.71737704     -0.63043673     -0.14704791
C       2.73018942     -1.88984187     -0.76030196
C       1.56644048     -2.65346543     -0.84854361
C       0.37091681     -2.16576217     -0.32175877
C       0.31799037     -0.91028709      0.30285196
C      -0.94162092     -0.39659748      0.85987760
C      -1.03468360      0.06115191      2.17429055
N      -2.16080288      0.55417155      2.74306274
C      -3.26719596      0.59025598      1.96295596
C      -3.30253767      0.15734049      0.64476735
O      -4.37703605      0.16211631     -0.19666529
C      -5.61176110      0.63983394      0.33941744
C      -6.70006244      0.55316268     -0.73803289
C      -7.00501713     -0.87352654     -1.18102539
C      -8.16282009     -1.25641551     -0.29299677
C      -8.91396064      0.05048595     -0.18297002
O      -7.92632422      1.09049199     -0.20361059
C      -2.11747901     -0.33832883      0.09875316
C       1.50501841     -0.15508853      0.37951329
N       5.15669143     -0.32359923     -0.55800927
C       6.03576532      0.63486247     -0.32371973
H       7.99113308     -2.23063015     -2.05039255
H       6.51429677     -1.53935338     -1.40901453
H       9.16341617      1.97491515     -0.42466095
H       7.99949751      3.85726383      0.68424968
H       5.53746913      3.66295252      1.15233653
H       3.41736393      2.09520118      0.92295686
H       3.65366223     -2.28638832     -1.17752379
H       1.59331452     -3.62961598     -1.32623011
H      -0.52310908     -2.78279292     -0.39243427
H      -0.17394287      0.03633425      2.83881281
H      -4.13839457      0.99484243      2.46669422
H      -5.50991779      1.68700297      0.65237207
H      -5.90876237      0.04706827      1.21418858
H      -6.39743970      1.15453952     -1.60311575
H      -7.34024245     -0.86670339     -2.22587657
H      -6.15723782     -1.56010238     -1.10900996
H      -7.79147594     -1.56165809      0.69227816
H      -8.77490411     -2.06759628     -0.69578027
H      -9.57703162      0.20104651     -1.04158777
H      -9.50522620      0.12180584      0.73420419
H      -2.11398755     -0.67040310     -0.93726243
H       1.46674345      0.82516652      0.84877143
