35
CCCCC(=O)n1cnc2c1c(=O)n(C)c(=O)n2C
C       5.54931943      0.38346757     -0.85717471
C       4.04580358      0.60870610     -0.85444909
C       3.37780985     -0.08479950      0.33237661
C       1.86294642      0.14710295      0.33176927
C       1.19886435     -0.55461767      1.48124717
O       1.80338174     -1.02558887      2.43988426
N      -0.19970087     -0.71455855      1.44624635
C      -0.85790886     -1.52297707      2.36740465
N      -2.14346796     -1.64260824      2.13321280
C      -2.35164546     -0.85668752      1.05302839
C      -1.20913248     -0.23978357      0.61845632
C      -1.25047098      0.69934767     -0.45559475
O      -0.30469666      1.40986526     -0.77735199
N      -2.49353612      0.77648798     -1.09404685
C      -2.61052764      1.68488700     -2.22036163
C      -3.68259823      0.18520385     -0.63574404
O      -4.76495610      0.41930636     -1.17935748
N      -3.57819684     -0.66050236      0.46333001
C      -4.75831239     -1.31811722      0.99979339
H       6.00714822      0.78037768      0.05452045
H       6.00657638      0.88778978     -1.71419284
H       5.78607054     -0.68317775     -0.92463520
H       3.84335231      1.68546853     -0.81858306
H       3.62398588      0.23026366     -1.79281793
H       3.80996568      0.29024633      1.26868462
H       3.58626923     -1.16160989      0.29788080
H       1.67829874      1.22044186      0.43103469
H       1.46174895     -0.24045573     -0.60963659
H      -0.32136969     -2.01267170      3.17253833
H      -1.65111550      1.81667540     -2.72892967
H      -2.95227474      2.65517357     -1.84610796
H      -3.33885450      1.30929009     -2.94566572
H      -4.92471531     -0.97001143      2.02415490
H      -4.59661874     -2.40077928      1.00093226
H      -5.65144223     -1.10115528      0.40801349
