35
CCOCCNCc1cc2cc(S(N)(=O)=O)oc2s1
C       6.10102366      1.36841500     -0.53521996
C       5.19044235      0.86621744     -1.64138722
O       4.13938507      0.04987814     -1.12858832
C       3.07406888      0.80679630     -0.53992776
C       1.94977536     -0.15747061     -0.13553706
N       1.40063128     -0.82297498     -1.32953437
C       0.52626814     -1.94431362     -0.98134598
C      -0.78321090     -1.48197328     -0.41184996
C      -1.71075769     -0.60089034     -0.97557707
C      -2.78004514     -0.46090644     -0.10047671
C      -3.95833764      0.26245550     -0.11420933
C      -4.58678598     -0.06004157      1.09880325
S      -6.14578775      0.49064525      1.78256258
N      -6.34223895     -0.32931923      3.23707092
O      -5.94602526      1.88746871      2.08419268
O      -7.14636215      0.00419952      0.86356229
O      -3.77840680     -0.96137474      1.80486499
C      -2.69684589     -1.16711539      1.03080635
S      -1.30898956     -2.07695239      1.15069478
H       6.96917000      1.88422205     -0.95584734
H       6.44925556      0.53661078      0.08560870
H       5.57781720      2.06632859      0.12507075
H       4.78395779      1.69516750     -2.23154186
H       5.77512902      0.23827826     -2.32172497
H       2.70029753      1.54830929     -1.25588595
H       3.43891781      1.32448598      0.35281350
H       2.36464892     -0.90609411      0.55016121
H       1.16663652      0.40426423      0.38404270
H       2.20235540     -1.18432062     -1.85369121
H       0.30808864     -2.50130553     -1.90104845
H       1.04295143     -2.64587477     -0.31540101
H      -1.57395620     -0.11847335     -1.93531545
H      -4.35150182      0.93593774     -0.86263863
H      -5.59867574     -0.09635711      3.89436577
H      -6.45289307     -1.33070067      3.08212812
