36
CNC1=Nc2ccc(Cl)cc2C(c2ccccc2)=[N+](O)C1
C       4.60402002     -1.29870376      0.66992115
N       3.38586871     -0.71948161      1.20319926
C       2.42986669     -0.10030314      0.43152664
N       1.88589447      0.97759875      0.92034914
C       0.90584008      1.70545705      0.22286350
C       1.03482699      3.09986588      0.24682513
C       0.09841988      3.92464984     -0.38041306
C      -0.98943468      3.35757828     -1.03364746
Cl     -2.14253019      4.36554771     -1.81201345
C      -1.15183844      1.97376552     -1.06362741
C      -0.20923987      1.14378319     -0.43296912
C      -0.41334064     -0.33833133     -0.47812643
C      -1.79925657     -0.83907544     -0.26603569
C      -2.42554644     -0.59969255      0.96229294
C      -3.73060581     -1.04676201      1.16495567
C      -4.40427156     -1.72315490      0.14719325
C      -3.77874934     -1.95515982     -1.07847820
C      -2.47353040     -1.51280393     -1.29181272
N       0.58505688     -1.15002887     -0.67427623
O       0.28990928     -2.50632637     -0.61095757
C       1.99068570     -0.70377953     -0.89144885
H       5.24632095     -1.62463891      1.49352179
H       4.38549081     -2.17325263      0.05111785
H       5.15257275     -0.56282172      0.07439682
H       3.57542972     -0.16057864      2.03925293
H       1.87537585      3.55351343      0.77082748
H       0.22250679      5.00534348     -0.34693164
H      -2.01504844      1.56176997     -1.58239912
H      -1.91699762     -0.07354791      1.76750131
H      -4.22939047     -0.86765628      2.11589879
H      -5.42446862     -2.06768618      0.30938043
H      -4.31751472     -2.47798747     -1.86674085
H      -2.00923261     -1.69182159     -2.25800682
H       1.16057721     -2.93847209     -0.55905717
H       2.01126713      0.03152598     -1.70127943
H       2.59106651     -1.56833242     -1.17951096
