12
CNC.[Cl-].[H+]
C       1.19231153      0.20954099      0.04394446
N      -0.02847121     -0.12765894     -0.63308681
C      -1.20434418     -0.01430064      0.14737887
Cl      0.00000000      0.00000000      0.00000000
H       0.00000000      0.00000000      0.00000000
H       1.76747378     -0.70552802      0.32459006
H       1.84179100      0.74984622     -0.69336877
H       0.99985285      0.78466974      0.95567632
H       0.04481376     -0.97554955     -1.22553350
H      -2.01286728      0.41295297     -0.49772593
H      -1.60490586     -0.96267469      0.54571800
H      -0.99565439      0.62870194      1.03240731
