46
CCCCC(CC)CN(CCC(=O)[O-])CCC(=O)O.[Na+]
C       5.39117918     -0.21303354     -0.18799819
C       4.39008431      0.93386886     -0.13341910
C       2.98827705      0.55386759     -0.62233784
C       2.31862489     -0.52459992      0.23825705
C       0.85929892     -0.87473455     -0.14840922
C       0.69502253     -1.31227757     -1.62070262
C       1.56336185     -2.50206770     -2.00688286
C      -0.09539116      0.29901005      0.20287353
N      -1.52162973      0.02618782     -0.05133113
C      -2.09375461     -0.92718717      0.93293508
C      -3.52448082     -1.37670013      0.63427199
C      -4.44637947     -0.84870237      1.72411362
O      -4.86650694     -1.70545141      2.54655248
O      -4.68031191      0.39858292      1.68303956
C      -2.30060679      1.28585521     -0.12807373
C      -2.32241263      2.15835876      1.12700344
C      -3.38179676      3.21714968      0.99277028
O      -3.13199395      4.37301481      0.66538790
O      -4.63616627      2.79716678      1.25246182
Na      0.00000000      0.00000000      0.00000000
H       5.41886559     -0.66636022     -1.18601742
H       6.39651231      0.15262744      0.04787178
H       5.14809744     -0.99112981      0.54289075
H       4.33535359      1.32257823      0.89261485
H       4.76263911      1.75319311     -0.76215824
H       2.38044972      1.46471743     -0.61527207
H       3.05305177      0.22362688     -1.66464746
H       2.33578324     -0.20449764      1.28809376
H       2.91436968     -1.44349625      0.19952682
H       0.59096308     -1.73281021      0.48059825
H       0.90561233     -0.47450094     -2.29575644
H      -0.34851291     -1.59723109     -1.80088591
H       1.31657059     -2.83047922     -3.02226997
H       1.39776672     -3.34675874     -1.32977140
H       2.62680067     -2.24745363     -1.99280071
H       0.05601943      0.59320386      1.25015174
H       0.20379341      1.15858622     -0.41002977
H      -1.49026560     -1.84112539      0.89786282
H      -1.98792527     -0.54754864      1.95621782
H      -3.56951644     -2.47371046      0.63143612
H      -3.88320464     -1.05855330     -0.35005999
H      -1.89361469      1.88562174     -0.95551690
H      -3.31917169      1.06555419     -0.46502613
H      -1.35791178      2.66282623      1.26409571
H      -2.50200629      1.60609633      2.05395919
H      -4.69493706      1.80871576      1.47753172
