17
CCC(O)CN
C       2.40537442     -0.38989037     -0.08293590
C       1.20205593      0.42306528      0.37558890
C      -0.12157237     -0.20740832     -0.05775835
O      -0.26386784     -1.49237984      0.55424843
C      -1.32373182      0.66400977      0.35197172
N      -2.57824306     -0.03712533      0.03999927
H       2.39927459     -1.39295029      0.35484491
H       2.41777436     -0.48962287     -1.17296360
H       3.33284210      0.10462476      0.22283547
H       1.28137406      1.43800164     -0.03053613
H       1.23793567      0.49910407      1.46911218
H      -0.12780395     -0.35797192     -1.14402459
H      -1.23086548     -1.65284316      0.56274244
H      -1.30336151      0.84378295      1.43257350
H      -1.29567822      1.63144720     -0.15983786
H      -2.66900393     -0.12893619     -0.97286556
H      -3.36250294      0.54509261      0.33666277
