41
CC(C)CC(N)C(=O)NC(CC(C)C)C(=O)O
C      -3.93024352     -2.75419059     -1.47450754
C      -2.83100299     -1.68868623     -1.42529530
C      -2.92966918     -0.79535112     -2.66320134
C      -2.94512086     -0.88702868     -0.11003299
C      -1.81100434      0.11806943      0.13863644
N      -2.16121411      1.01665481      1.26913705
C      -0.46434316     -0.55938190      0.48353651
O      -0.21961926     -1.75927287      0.39325687
N       0.47618693      0.32411212      0.96072430
C       1.81497120     -0.09040808      1.37567221
C       2.76905203      1.11443889      1.41914278
C       2.93207432      1.86510221      0.08091596
C       3.85010173      3.07500446      0.27705815
C       3.48722564      0.97091043     -1.02838805
C       1.77422896     -0.80369393      2.74404806
O       2.41908061     -0.46676932      3.72756424
O       0.98676342     -1.90920681      2.75621048
H      -4.92634365     -2.29893243     -1.46169563
H      -3.84593614     -3.35923919     -2.38347489
H      -3.85478542     -3.43113508     -0.61711932
H      -1.86801249     -2.20931083     -1.45841699
H      -3.84976578     -0.20179484     -2.65253162
H      -2.08066648     -0.10919882     -2.73039715
H      -2.92853259     -1.39846250     -3.57770206
H      -3.90644846     -0.35494230     -0.11583265
H      -2.98812597     -1.59202953      0.73144006
H      -1.64431204      0.74826865     -0.74015828
H      -2.39735502      0.44179732      2.08206782
H      -3.02508773      1.50979064      1.03622568
H       0.07386420      1.17386230      1.35631625
H       2.19176161     -0.83228758      0.66159563
H       2.40986931      1.82506675      2.17653343
H       3.75606996      0.77714775      1.76357778
H       1.95375925      2.24278680     -0.24083700
H       3.44761287      3.74920915      1.04036092
H       3.94645441      3.64565910     -0.65279011
H       4.85332390      2.76638591      0.59078220
H       4.43359282      0.50785420     -0.72917333
H       3.66826638      1.55046183     -1.94012861
H       2.78338506      0.17447303     -1.28791056
H       0.57994458     -2.09573312      1.87446544
