31
CC(C)[C@@H]1CC[C@@H](C)C[C@H]1O
C      -2.94818458      1.30672972      0.36820279
C      -2.22614351     -0.01004597      0.05843825
C      -2.60430181     -0.47999461     -1.34886219
C      -0.69067835      0.10213763      0.30316577
C       0.00894046      1.12168338     -0.61432441
C       1.50086896      1.24059134     -0.30093063
C       2.20877353     -0.11581281     -0.38123271
C       3.68590450      0.02350669     -0.01830631
C       1.52092828     -1.13579920      0.52976007
C       0.02752191     -1.26281680      0.21684464
O      -0.55687481     -2.16879965      1.14923285
H      -2.68112661      1.67502956      1.36411864
H      -2.71014630      2.08553905     -0.36289384
H      -4.03392034      1.16070484      0.34992791
H      -2.62280933     -0.75139366      0.76456822
H      -3.69186131     -0.58201178     -1.43695369
H      -2.27948237      0.22920710     -2.11626300
H      -2.17114835     -1.45766804     -1.57732934
H      -0.57825557      0.45585205      1.33927752
H      -0.10686759      0.82993707     -1.66466554
H      -0.44423069      2.11244791     -0.50452369
H       1.96123234      1.94359825     -1.00557398
H       1.62533725      1.66998292      0.70151839
H       2.14845863     -0.47839616     -1.41604085
H       3.81228589      0.38352165      1.00839882
H       4.18527484      0.73066603     -0.68895081
H       4.19933214     -0.93987973     -0.10488184
H       1.65078063     -0.85697638      1.58431788
H       1.99910782     -2.11825739      0.42594460
H      -0.09085353     -1.69216481     -0.78425305
H      -0.09786213     -3.02111819      1.05765753
