30
CCCn1c(=O)c2c(ncn2C)n(C)c1=O
C       4.30544052     -0.88765422      0.34490114
C       2.86363431     -0.47391482      0.58941115
C       2.10767547     -0.27312763     -0.72609346
N       0.72259346      0.12313922     -0.49385928
C      -0.21766311     -0.90324303     -0.34346440
O       0.05037626     -2.10001767     -0.40137388
C      -1.53142497     -0.41905118     -0.10525994
C      -1.83114018      0.90522330     -0.00591385
N      -3.15710433      1.11089853      0.22888754
C      -3.67427232     -0.10104817      0.27313539
N      -2.72060700     -1.06455848      0.07623993
C      -2.93905431     -2.48867385      0.06474963
N      -0.86784513      1.87693289     -0.12653404
C      -1.22576510      3.27638901      0.01685329
C       0.45751031      1.50231442     -0.35405240
O       1.36356334      2.33781763     -0.42648070
H       4.84086173     -0.12369254     -0.22779094
H       4.35429052     -1.83046109     -0.20919212
H       4.82688715     -1.02594676      1.29718386
H       2.84784881      0.45136266      1.17727648
H       2.36549163     -1.23992654      1.19537601
H       2.60944804      0.49013629     -1.33250789
H       2.12646163     -1.20133544     -1.30969237
H      -4.71838331     -0.33240742      0.44331693
H      -2.34739607     -2.93787932      0.86624990
H      -3.99958494     -2.69617786      0.22895744
H      -2.63396702     -2.87998492     -0.90893630
H      -1.59162906      3.44675539      1.03432331
H      -2.01341119      3.52217721     -0.70251562
H      -0.37283515      3.93595438     -0.16319479
