20
Nc1ccc([N+](=O)[O-])cc1S(=O)(=O)[O-].[Na+]
N      -2.12556132     -1.47021967     -0.63710007
C      -0.85138505     -0.88210965     -0.44772679
C       0.25478359     -1.74312648     -0.45969000
C       1.53865578     -1.27607617     -0.16269930
C       1.72209862      0.06708448      0.19130421
N       3.07053962      0.55322036      0.50496970
O       4.01106816     -0.25060435      0.39919721
O       3.20302768      1.73266934      0.86005155
C       0.63270279      0.93504120      0.26245021
C      -0.65101367      0.44728992     -0.03656014
S      -2.01497495      1.63426010      0.11368716
O      -3.12462426      0.96885274     -0.56875014
O      -1.48209565      2.80938743     -0.56755119
O      -2.14652117      1.73860301      1.56302460
Na      0.00000000      0.00000000      0.00000000
H      -2.48588649     -1.77986256      0.26415900
H      -2.77786787     -0.70256586     -0.90630284
H       0.10972840     -2.78917709     -0.72079671
H       2.37364239     -1.97079135     -0.20590714
H       0.74368341      1.97812461      0.55424071
