18
O=C(O)c1cc([N+](=O)[O-])ccc1O
O      -3.24325606     -0.13086910      0.03320789
C      -2.19646183     -0.74853018     -0.06236221
O      -2.16532610     -2.07870460     -0.23388219
C      -0.85483188     -0.12692862     -0.00313181
C       0.30950983     -0.90016486     -0.12052285
C       1.56364041     -0.27455834     -0.05942959
N       2.78521318     -1.08154450     -0.18204309
O       2.65385900     -2.30351035     -0.33712531
O       3.87331303     -0.49240977     -0.12309383
C       1.66537045      1.11200246      0.11729186
C       0.50367928      1.87653793      0.23352415
C      -0.74702966      1.26138289      0.17372176
O      -1.82729244      2.09357323      0.29739727
H      -3.10592160     -2.35651540     -0.25509462
H       0.23619260     -1.97743668     -0.25791318
H       2.63247362      1.60926319      0.16631162
H       0.57021830      2.95386972      0.37102680
H      -2.65335012      1.56454299      0.24211732
