32
CCNc1nc(NC(C)C)nc(OC)n1
C      -3.61676832     -3.30759473     -0.27753640
C      -3.15571525     -1.88170989     -0.01870427
N      -1.82951564     -1.69685885     -0.57987369
C      -1.26539179     -0.44781884     -0.34068739
N       0.05375662     -0.43837383     -0.20697248
C       0.61538493      0.74383508      0.01007376
N       1.99194758      0.85574831      0.16949223
C       2.81270096     -0.08942434     -0.58056717
C       3.10865296     -1.31914962      0.27808711
C       4.12597799      0.59734935     -0.96354826
N      -0.05492712      1.88064604      0.09706556
C      -1.36996435      1.75751908     -0.04339161
O      -2.17490819      2.87567618      0.03789396
C      -1.45419168      4.06921487      0.31211138
N      -2.02776233      0.62955867     -0.26261685
H      -3.64742580     -3.52135746     -1.35125858
H      -2.93908030     -4.03077049      0.18862297
H      -4.61924196     -3.46465616      0.13235120
H      -3.14778079     -1.69899587      1.06277589
H      -3.87389215     -1.19396508     -0.48085868
H      -1.13403706     -2.37737448     -0.29202747
H       2.20736599      1.83697609      0.02671043
H       2.32047224     -0.39741607     -1.51231546
H       2.19204270     -1.85373024      0.54637397
H       3.60986757     -1.04018288      1.21197227
H       3.75668328     -2.02035467     -0.25838920
H       4.77469965     -0.08447170     -1.52338063
H       3.93588669      1.47401692     -1.59272856
H       4.67243733      0.93897801     -0.07715559
H      -2.17615396      4.88982579      0.36745487
H      -0.94221434      4.01256319      1.27914535
H      -0.74890543      4.30229760     -0.49327501
