20
C=COCCCCO
C      -3.19176918      0.82377626     -0.16908563
C      -2.58882218     -0.01543243      0.68024959
O      -1.35645818     -0.59555909      0.58972610
C      -0.57112913     -0.28960258     -0.56369421
C       0.76009213     -1.03306413     -0.46752285
C       1.56148725     -0.73256392      0.80580853
C       1.89677779      0.74128797      1.00049520
O       2.57859448      1.25422880     -0.13579858
H      -2.73561492      1.16229823     -1.09112577
H      -4.18564613      1.19859147      0.05464026
H      -3.06775859     -0.33875766      1.59883099
H      -1.09554661     -0.62405704     -1.46711643
H      -0.39788868      0.79030493     -0.63281150
H       0.56217720     -2.11221323     -0.48472938
H       1.36436927     -0.80621697     -1.35344163
H       2.49733447     -1.30229449      0.74720615
H       1.02174934     -1.09946904      1.68631755
H       0.99452984      1.33898378      1.15888564
H       2.53793546      0.87463441      1.87798427
H       3.41558637      0.76512473     -0.21584719
