28
S=C(Nc1ccccc1)Nc1ccccc1
S      -0.25279485     -2.91006300     -2.97117145
C      -0.15114372     -1.73989304     -1.77643005
N      -1.17067528     -1.63712123     -0.89288744
C      -1.74249376     -0.49358870     -0.29010430
C      -2.76834776     -0.70963452      0.63874666
C      -3.40013274      0.36684806      1.26630877
C      -3.02052581      1.67073821      0.96000585
C      -2.01675220      1.89607895      0.02106846
C      -1.38542514      0.81824886     -0.60726991
N       0.94604550     -0.94870499     -1.74724095
C       1.66272948     -0.42461696     -0.64738364
C       2.74309458      0.41894103     -0.93554519
C       3.51576548      0.96426417      0.09275626
C       3.22295557      0.65953258      1.41920012
C       2.16442293     -0.19617042      1.71453812
C       1.39202567     -0.74227319      0.68484144
H      -1.76695752     -2.45756755     -0.87947724
H      -3.07883388     -1.71883649      0.89671137
H      -4.18750185      0.18629349      1.99337683
H      -3.50978093      2.51055219      1.44629081
H      -1.72541618      2.91262507     -0.23054430
H      -0.63230329      1.03516758     -1.35684625
H       1.46956373     -0.96587668     -2.61585944
H       2.98808522      0.67419565     -1.96329058
H       4.34494919      1.62617153     -0.14285179
H       3.82186280      1.08197994      2.22168347
H       1.93961319     -0.44689972      2.74805013
H       0.59797154     -1.43039081      0.95332425
