17
O=C(O)[C@H](O)[C@@H](O)C(=O)O.[Ca+2]
O      -0.04739025     -2.18452740     -0.37714603
C       0.78922297     -1.30939227     -0.56566215
O       2.07386197     -1.54876866     -0.90843374
C       0.48904588      0.16987467     -0.41967221
O       1.75658147      0.86271509     -0.37723675
C      -0.28642257      0.36615095      0.88303920
O       0.04962056      1.68312434      1.37318966
C      -1.79196227      0.25055330      0.64677061
O      -2.54726951      1.19390512      0.85434312
O      -2.24096758     -0.95518508      0.24825139
Ca      0.00000000      0.00000000      0.00000000
H       2.54221939     -0.67651494     -0.94164218
H      -0.05163445      0.52108991     -1.30375558
H       1.62528239      1.57208576      0.29477133
H       0.00060027     -0.33775498      1.67141737
H      -0.78869279      2.06814255      1.71229597
H      -1.57209549     -1.67549837      0.12804618
