49
O=C(CCCN1CCC(O)(c2ccccc2)CC1)c1ccc(F)cc1
O       2.67795024      1.64002852      0.35127773
C       3.26123770      0.56939987      0.50642688
C       2.52227806     -0.75885574      0.55775803
C       1.03965092     -0.64032804      0.18818090
C       0.83909551     -0.42152706     -1.32098023
N      -0.54703677     -0.27710129     -1.78613649
C      -1.37516390     -1.45826972     -1.54438278
C      -2.75243949     -1.30655670     -2.19719791
C      -3.48576019     -0.02550844     -1.74958391
O      -4.59879307      0.13729981     -2.65101736
C      -4.08421194     -0.03900522     -0.33505659
C      -4.09298694     -1.17535778      0.49047253
C      -4.67089237     -1.14405474      1.76468468
C      -5.26884232      0.01962366      2.23627896
C      -5.29974952      1.15082414      1.42983037
C      -4.72184951      1.11801448      0.15813296
C      -2.52781263      1.15892676     -1.99015383
C      -1.18291999      0.95029383     -1.29651730
C       4.74844877      0.56976702      0.66479070
C       5.43939963      1.77626361      0.46484756
C       6.82833526      1.82721277      0.60143910
C       7.52428026      0.67390937      0.93976465
F       8.85589354      0.71989844      1.07181119
C       6.85738273     -0.52872973      1.14556193
C       5.46666858     -0.58426552      1.00974239
H       3.00744323     -1.47470047     -0.11447226
H       2.59186851     -1.13303728      1.58582912
H       0.57992727      0.17049708      0.76357605
H       0.54645112     -1.57075035      0.49177720
H       1.29258675     -1.26300217     -1.86127207
H       1.40423183      0.45920248     -1.64931183
H      -0.89205824     -2.34185191     -1.97902130
H      -1.48411791     -1.64973793     -0.47244149
H      -3.36337960     -2.20030653     -2.02234935
H      -2.62019973     -1.27697864     -3.28908208
H      -5.37998189     -0.25652479     -2.22556891
H      -3.65833953     -2.11671396      0.16821504
H      -4.65728058     -2.03547868      2.38705974
H      -5.71834923      0.04156966      3.22526847
H      -5.77878417      2.06000896      1.78405685
H      -4.78964341      2.01274677     -0.45860253
H      -2.36284224      1.27654927     -3.07127376
H      -2.96198291      2.11389404     -1.67477393
H      -1.32175577      0.92856323     -0.20932894
H      -0.54718232      1.81408033     -1.52606446
H       4.89718213      2.68301570      0.20039892
H       7.36666724      2.75717746      0.44678139
H       7.42520163     -1.41504508      1.41273826
H       4.97217525     -1.53507948      1.18473881
