23
CC(=O)Nc1ccc2c(c1)C(=O)OC2
C       4.20110990     -0.51016880     -0.74845368
C       2.98273152      0.26226765     -0.30693129
O       3.08431447      1.41266313      0.10333571
N       1.81706191     -0.46779199     -0.45618620
C       0.50209301     -0.05998772     -0.14897747
C       0.17652207      1.19980554      0.38926104
C      -1.15183659      1.55074807      0.67609267
C      -2.14463896      0.62653446      0.41801410
C      -1.82229452     -0.60419877     -0.10747637
C      -0.52173735     -0.98011059     -0.40117638
C      -3.04454103     -1.37499098     -0.27863175
O      -3.12829067     -2.50379952     -0.71828765
O      -4.07091313     -0.58142106      0.15085478
C      -3.60480172      0.70652750      0.61152384
H       4.11597086     -1.56559428     -0.47408591
H       4.31442848     -0.41924703     -1.83185080
H       5.08799021     -0.10263769     -0.25462489
H       1.91410076     -1.40116311     -0.83779306
H       0.94525602      1.93882979      0.59948732
H      -1.37953364      2.52854737      1.09078019
H      -0.32960076     -1.96505061     -0.81439908
H      -3.87948120      0.82389298      1.66330260
H      -4.06390966      1.48634564     -0.00212539
