46
CCCCCC(=O)NCCNC(=O)CCCCC
C      -6.13769829      0.78832943     -3.13148019
C      -6.07981953     -0.21328402     -1.98853032
C      -4.89758233      0.00565522     -1.04138095
C      -3.53707625     -0.22526254     -1.70803559
C      -2.37838583     -0.09643332     -0.71908250
C      -2.24289886     -1.28408434      0.21673868
O      -2.88700646     -2.32191605      0.11063790
N      -1.30001382     -1.08320613      1.19737097
C      -0.93514266     -2.13469128      2.12428405
C       0.08991239     -1.67417203      3.16738607
N       1.42246232     -1.46055968      2.61841760
C       1.74496399     -0.36838842      1.84327746
O       0.93031427      0.49525741      1.53295773
C       3.19632679     -0.36228189      1.40323887
C       3.53629366      0.85756026      0.54975699
C       5.00310344      0.84402824      0.11820677
C       5.34245357      2.06497954     -0.73636365
C       6.80031479      2.05527697     -1.16768121
H      -5.29137966      0.66798671     -3.81395774
H      -7.05404646      0.64210265     -3.71242673
H      -6.13626675      1.81585482     -2.75438983
H      -7.00743291     -0.13341903     -1.40913573
H      -6.04783886     -1.23046413     -2.39594772
H      -5.01342784     -0.67812568     -0.19244168
H      -4.93926883      1.02270152     -0.63259286
H      -3.51860796     -1.21034482     -2.18919470
H      -3.39107337      0.52076483     -2.49751995
H      -2.48387778      0.81987240     -0.12680194
H      -1.44033643     -0.02561079     -1.28326285
H      -0.67028195     -0.28169842      1.12090127
H      -1.85180894     -2.46665755      2.62443252
H      -0.54528201     -2.97765575      1.54230218
H      -0.23856399     -0.74213399      3.64115163
H       0.19299765     -2.43902600      3.94389529
H       2.12058855     -2.17848337      2.76661286
H       3.82631370     -0.37770947      2.30035012
H       3.38536400     -1.28009689      0.83414676
H       2.89045349      0.87893759     -0.33698063
H       3.32575516      1.77381801      1.11540110
H       5.21059569     -0.07107752     -0.44977119
H       5.64715837      0.82638102      1.00587045
H       5.14068985      2.98264661     -0.17166357
H       4.70406753      2.08516875     -1.62729974
H       7.02744630      1.16503446     -1.76284111
H       7.02104029      2.93694305     -1.77748134
H       7.46650199      2.06748365     -0.29913005
