14
C=CSC(C)O
C       2.96892683     -0.19754900      0.49749945
C       1.75753958      0.10269755      0.01900036
S       0.33508229     -0.66030752      0.64066787
C      -0.93679220      0.08316188     -0.42217613
C      -2.29495699     -0.52321575     -0.10719171
O      -1.00052203      1.48372629     -0.19836749
H       3.11366208     -0.92799350      1.28774635
H       3.85400427      0.28924863      0.10105038
H       1.65858704      0.84207131     -0.77235834
H      -0.69117218     -0.08877233     -1.47494710
H      -3.06364367     -0.06792977     -0.74215135
H      -2.30965371     -1.60426234     -0.27982161
H      -2.59657106     -0.32202003      0.92740813
H      -0.79449023      1.59114458      0.74681916
