10
c1cc[nH]c1
C       0.33071346      1.14807476     -0.07628770
C       1.19102556      0.03040112     -0.19546201
C       0.40178745     -1.09801735     -0.18430502
N      -0.90410306     -0.70016189     -0.06260270
C      -0.95738366      0.66774857      0.00397484
H       0.61984288      2.19075455     -0.05169142
H       2.26987291      0.04711971     -0.28026069
H       0.65662754     -2.14704505     -0.25233273
H      -1.70368192     -1.31937746     -0.02741436
H      -1.90470116      1.18050305      0.10247691
