22
Cc1ccc(S(N)(=O)=O)cc1N
C      -2.96466158     -0.96583333      0.80843098
C      -1.58436248     -0.57933858      0.34999964
C      -0.76198175     -1.56164770     -0.23106934
C       0.53593223     -1.25615575     -0.63624329
C       1.02347543      0.03346617     -0.43680442
S       2.66790414      0.43764081     -0.93533584
N       3.53944017      0.15582134      0.47084108
O       2.75666419      1.85828951     -1.18125497
O       3.13166164     -0.54152664     -1.89079318
C       0.21255501      1.02497024      0.12203073
C      -1.11172568      0.74196873      0.47478051
N      -1.85709142      1.72773616      1.13952201
H      -3.72034538     -0.44143103      0.21491433
H      -3.09726385     -0.72278439      1.86765509
H      -3.14044340     -2.04104439      0.69632558
H      -1.12880897     -2.57798558     -0.36108813
H       1.15838766     -2.02669154     -1.08478698
H       4.21263227     -0.59505281      0.31800078
H       3.95595215      1.02580814      0.80259381
H       0.61323719      2.02347221      0.28050660
H      -2.86173553      1.60300623      1.07270081
H      -1.57942204      2.67731220      0.90944334
