22
CCNC(=O)Nc1ncc([N+](=O)[O-])s1
C      -3.75056018      0.83132478      1.10552278
C      -3.40721111      0.23030395     -0.24639945
N      -2.20014011     -0.57177925     -0.19344166
C      -0.95108787      0.02184976     -0.22511607
O      -0.80658520      1.22951426     -0.35265331
N       0.03814139     -0.92169959     -0.11750211
C       1.38830610     -0.69558495     -0.06105058
N       2.24398225     -1.69124221     -0.14715009
C       3.53417266     -1.19746522     -0.04481021
C       3.61226810      0.16230117      0.13567643
N       4.79848084      0.94260925      0.27768537
O       5.86943630      0.32435475      0.21006405
O       4.68406054      2.16044508      0.45928132
S       2.06406709      0.85354104      0.18097812
H      -4.68050366      1.40454835      1.04224927
H      -2.95921949      1.50158645      1.45617649
H      -3.88056673      0.04745071      1.85908790
H      -3.28038865      1.02366499     -0.99067402
H      -4.21541302     -0.42791371     -0.58032997
H      -2.26915871     -1.46031467      0.28012187
H      -0.20476572     -1.88520480     -0.28075822
H       4.37268517     -1.88229015     -0.10656087
