25
O=C1C=CC(=NNc2ccccc2)C=C1
O      -5.65127605     -1.14678273      0.69290503
C      -4.49026596     -0.80406249      0.51468482
C      -4.14272754      0.59053907      0.19097275
C      -2.87643387      0.95745255     -0.02428366
C      -1.75058166     -0.00903079      0.04062166
N      -0.55814890      0.44045493     -0.21149411
N       0.46297072     -0.46388556     -0.19988298
C       1.78097313      0.05873728     -0.14930627
C       2.05763204      1.34548650      0.33090969
C       3.37302717      1.80551845      0.43907860
C       4.43357102      0.97231842      0.09217466
C       4.17911915     -0.32297145     -0.35176993
C       2.86213253     -0.77957172     -0.45916655
C      -2.11364865     -1.40739592      0.40331918
C      -3.38184742     -1.77003491      0.61985162
H      -4.96423408      1.29419607      0.13728920
H      -2.61729533      1.98275722     -0.26468739
H       0.40520207     -1.19365984     -0.91145358
H       1.24188288      2.00187957      0.62253259
H       3.56465583      2.81180173      0.80133320
H       5.45648644      1.32863627      0.17888400
H       5.00479702     -0.98176475     -0.60694456
H       2.68781699     -1.80046044     -0.78740938
H      -1.31108073     -2.12661111      0.50653970
H      -3.65272680     -2.78354635      0.88971708
