35
C[C@@H](Oc1ccc(Oc2ccc(C(F)(F)F)cn2)cc1)C(=O)O
C      -4.17928171     -0.36401189     -1.59774317
C      -4.34505991      0.47504541     -0.33808678
O      -3.31568184      1.47366760     -0.26674062
C      -2.10958272      1.14353867      0.28629457
C      -1.74306500     -0.10485613      0.79231985
C      -0.46531961     -0.29787106      1.32806263
C       0.45022816      0.75343403      1.34042384
O       1.69044786      0.59685819      1.90537555
C       2.63003884     -0.10868516      1.15874372
C       3.84913329     -0.33866435      1.77867858
C       4.83248250     -1.02725703      1.07156803
C       4.57329683     -1.45764059     -0.23358613
C       5.57629324     -2.21874097     -1.04404804
F       5.37014607     -3.56309267     -0.99351571
F       5.55519756     -1.88658726     -2.36412062
F       6.85916522     -2.02133324     -0.63173293
C       3.31951029     -1.18259911     -0.76235683
N       2.34686151     -0.51744836     -0.09873070
C       0.08863806      2.00723074      0.85759638
C      -1.18738965      2.19597569      0.32412464
C      -5.68454757      1.21325578     -0.40718239
O      -6.76957542      0.66406002     -0.53458282
O      -5.56152527      2.56074709     -0.30515558
H      -4.19536151      0.26980365     -2.49158504
H      -4.98144189     -1.10270442     -1.69270662
H      -3.22187813     -0.89352171     -1.60391067
H      -4.38446278     -0.12562123      0.57731884
H      -2.41375624     -0.95664742      0.78304973
H      -0.18187074     -1.26994495      1.72188386
H       4.02736347      0.00859505      2.79047480
H       5.79575347     -1.22322463      1.53852777
H       3.04670947     -1.49664436     -1.76801778
H       0.79697318      2.82943826      0.88579558
H      -1.45892532      3.17313781     -0.06722712
H      -4.60951373      2.79230857     -0.22307824
