50
CCCCCCCCOC(=O)CCCCCCC
C      -8.30200901      1.53986625     -0.95017094
C      -7.64696364      0.62817202      0.07522828
C      -6.22751328      0.24240539     -0.34352409
C      -5.57330210     -0.67175703      0.69474856
C      -4.19272613     -1.18275522      0.27276850
C      -3.14025478     -0.07693078      0.16818601
C      -1.75991921     -0.65490793     -0.14150182
C      -0.70501154      0.44166996     -0.25386051
O       0.56664550     -0.13281681     -0.59394189
C       1.32649792     -0.55496337      0.45619319
O       0.99755845     -0.50005748      1.63236738
C       2.61892192     -1.14346652     -0.06089588
C       3.73572543     -1.14540217      0.98274453
C       4.21740909      0.24448327      1.41750492
C       4.74269552      1.15003057      0.29872915
C       5.88161447      0.57118819     -0.54580450
C       7.13592821      0.24821179      0.26670671
C       8.27114206     -0.22216991     -0.62982392
H      -9.31554157      1.80243068     -0.63123843
H      -8.36947978      1.04816492     -1.92587588
H      -7.73297654      2.46719183     -1.07098377
H      -7.62332033      1.13692094      1.04597352
H      -8.25824011     -0.27374031      0.19601709
H      -6.25689351     -0.26573600     -1.31492222
H      -5.63236007      1.15352501     -0.47069619
H      -6.22103508     -1.54083525      0.86481219
H      -5.49335698     -0.14569868      1.65385461
H      -3.86224647     -1.92225942      1.01283546
H      -4.27284687     -1.71003249     -0.68564955
H      -3.10005816      0.48310533      1.11017196
H      -3.41633050      0.63145641     -0.62070652
H      -1.78860563     -1.22605171     -1.07784435
H      -1.46859341     -1.37036187      0.63688652
H      -0.96612026      1.13201399     -1.06338509
H      -0.63605313      1.03770622      0.66404693
H       2.93703396     -0.59507729     -0.95328992
H       2.40474893     -2.17502500     -0.36294822
H       3.39641988     -1.68462858      1.87626317
H       4.58374638     -1.71753789      0.58888158
H       3.39931222      0.76943612      1.92539449
H       4.99917783      0.11709079      2.17600929
H       5.08172215      2.09102005      0.75050798
H       3.91541029      1.42110122     -0.36783759
H       5.54050664     -0.32505673     -1.07633890
H       6.13681645      1.30677002     -1.31918445
H       7.46011998      1.13664810      0.82072573
H       6.92306723     -0.53537303      1.00162389
H       7.98887157     -1.12707457     -1.17740150
H       8.54285508      0.54956162     -1.35709373
H       9.15781095     -0.45045467     -0.03011963
