22
CCNC(CC)C(=O)O
C       2.40251214      1.60495474     -0.56774533
C       1.52220986      0.38434815     -0.78947626
N       0.67827591      0.16885452      0.39060727
C      -0.20268346     -1.02754802      0.21860353
C      -1.43903396     -0.79085251     -0.66354734
C      -2.35589866      0.33722497     -0.20501742
C      -0.60630621     -1.52395347      1.62370650
O      -1.49784949     -2.32089657      1.86822587
O       0.18813258     -0.97947767      2.58438904
H       3.04664286      1.76806579     -1.43779662
H       1.80001964      2.50775484     -0.42063476
H       3.04640197      1.47504207      0.30874584
H       2.16300627     -0.48775531     -0.96067263
H       0.91242296      0.54420958     -1.68481142
H       0.08965788      0.99697852      0.52052872
H       0.39292102     -1.84776309     -0.20351426
H      -1.12533849     -0.58956121     -1.69451356
H      -2.03052852     -1.71447521     -0.70088504
H      -2.68092277      0.19686982      0.83009221
H      -1.86766027      1.31252433     -0.28762843
H      -3.25112640      0.36670890     -0.83502996
H       0.81514515     -0.38125319      2.10637405
