89
CCCCCCCC/C=C\CCCCCCCC(=O)N(C)CC(=O)O.OCCN(CCO)CCO
C       9.54413841     -0.83516657     -2.08748987
C       8.44044627     -0.46796137     -1.10875731
C       7.06354916     -0.87815452     -1.63186579
C       5.96368562     -0.50939807     -0.63415890
C       4.58061843     -0.91363584     -1.14917906
C       3.46178810     -0.65321023     -0.13656936
C       3.22532409      0.83439470      0.13493618
C       2.06807524      1.04021102      1.11298199
C       1.85798453      2.49652711      1.40890256
C       0.98360553      3.38176218      0.90345462
C      -0.10283378      3.28693348     -0.13681987
C      -0.72821449      1.94088689     -0.50358302
C      -1.52254231      1.31355642      0.64725918
C      -2.05210033     -0.06752382      0.25717309
C      -2.66511428     -0.83655990      1.43094545
C      -3.86716732     -0.17731023      2.11819661
C      -5.06915928      0.11041978      1.21594142
C      -5.82630279     -1.13496928      0.78208930
O      -5.37980305     -2.27399297      0.93619057
N      -7.03790192     -0.97119206      0.13542372
C      -7.53439420      0.28811922     -0.40340746
C      -7.87041301     -2.15896214     -0.11596006
C      -7.46601476     -2.96635779     -1.34824722
O      -8.27617823     -3.46309167     -2.12079112
O      -6.13410921     -3.18493101     -1.46720019
O      -1.98404899     -0.66653959      1.71857252
C      -2.23054112     -1.07511318      0.37607988
C      -1.44355776     -0.19050072     -0.61064022
N      -0.03030760     -0.00749719     -0.22379553
C       0.75003569     -1.25984970     -0.32294157
C       1.63381625     -1.42668644      0.92180650
O       0.81235680     -1.58675378      2.07974609
C       0.62687953      1.07488510     -0.97723775
C       0.09180938      2.48378919     -0.67209808
O       0.94563133      3.46848183     -1.25568833
H       9.39216700     -0.34497419     -3.05488251
H      10.51599903     -0.51856620     -1.69701435
H       9.57941157     -1.91646127     -2.25064390
H       8.46419421      0.61385601     -0.93188094
H       8.63518914     -0.95825041     -0.14738160
H       6.87091373     -0.38183427     -2.59116654
H       7.04617423     -1.95902785     -1.81519887
H       6.15723089     -1.00648248      0.32367991
H       5.99714197      0.57025356     -0.45207035
H       4.36077266     -0.38417519     -2.08423502
H       4.58625924     -1.98590815     -1.38404342
H       3.68829230     -1.17130427      0.80343017
H       2.53522807     -1.09616653     -0.52356899
H       4.13095846      1.28912009      0.55121561
H       3.00973462      1.34722559     -0.81053244
H       1.16987478      0.55660731      0.73479326
H       2.29399322      0.53277423      2.05955693
H       2.56239814      2.88579308      2.14834440
H       1.08349762      4.40010692      1.29033438
H      -0.91527977      3.94863449      0.18928262
H       0.29580076      3.73875836     -1.05405962
H      -1.41668001      2.10440706     -1.34316498
H       0.03670021      1.25691182     -0.88479516
H      -2.35894407      1.97335818      0.90605674
H      -0.89917752      1.22556807      1.54378456
H      -2.77803519      0.02610678     -0.55798958
H      -1.22319528     -0.67071238     -0.13620764
H      -1.88728392     -0.99538204      2.18855637
H      -2.93951989     -1.83666887      1.07880164
H      -3.54232316      0.76488049      2.57586814
H      -4.18448452     -0.82275845      2.94728419
H      -4.75642753      0.66788831      0.32862960
H      -5.76766742      0.73944246      1.78204531
H      -8.46418315      0.54396097      0.11373540
H      -6.82637036      1.10883706     -0.28219151
H      -7.73491209      0.15857852     -1.47161089
H      -8.91083708     -1.83671557     -0.22945036
H      -7.81567977     -2.83064467      0.74918023
H      -5.64789755     -2.93742987     -0.64374417
H      -1.00418013     -0.69445736      1.81199847
H      -1.97049987     -2.13412841      0.28415198
H      -3.30333313     -0.98193176      0.18565002
H      -1.53031699     -0.58958187     -1.62851060
H      -1.94570663      0.78348522     -0.60045417
H       1.36408568     -1.28049748     -1.23184837
H       0.09506075     -2.13526230     -0.38362113
H       2.25454961     -2.32330747      0.81834580
H       2.28844609     -0.56188955      1.07054636
H       1.41241006     -1.66183311      2.84379792
H       0.57223008      0.89359466     -2.05959482
H       1.69806352      1.08323887     -0.73342914
H       0.04223175      2.66717358      0.40736680
H      -0.90611426      2.63117923     -1.09428820
H       1.76099996      3.49000224     -0.72391443
