29
O=C(CC(=O)c1ccccc1)c1ccccc1
O       0.12919379     -1.02015706     -1.19260169
C       0.78615660     -0.15574326     -0.61585759
C       0.14178746      1.04887273      0.02326962
C      -1.21101389      1.40085358     -0.54708194
O      -1.31693317      2.29847247     -1.38463698
C      -2.43922175      0.69940276     -0.05972362
C      -2.39125489     -0.42776850      0.76922727
C      -3.57493084     -1.03087082      1.20572517
C      -4.81039769     -0.51405636      0.81916598
C      -4.86778515      0.60398065     -0.00949361
C      -3.68759201      1.20744806     -0.44859932
C       2.26558510     -0.32755560     -0.50022062
C       2.88764389     -1.29234021     -1.30504515
C       4.26699708     -1.49358950     -1.22919180
C       5.03321320     -0.73578376     -0.34619605
C       4.42202082      0.22092541      0.46306818
C       3.04104506      0.42575065      0.39025537
H       0.77530305      1.92957481     -0.13769622
H       0.06486329      0.90055535      1.10503206
H      -1.45006524     -0.87492122      1.07282855
H      -3.53182197     -1.91268018      1.84069373
H      -5.72867455     -0.98832349      1.15662063
H      -5.82945919      1.00533821     -0.31918741
H      -3.74716372      2.07850740     -1.09894233
H       2.29996623     -1.89109977     -1.99916368
H       4.74120680     -2.24172627     -1.85985466
H       6.10775573     -0.89246230     -0.28762116
H       5.02331654      0.80771723      1.15386950
H       2.60025944      1.17167900      1.04458467
