33
CCOC(=O)COC(=O)c1ccccc1OC(C)=O
C      -5.84003486      0.54545573      0.96050469
C      -4.63641047      0.90735607      0.11236497
O      -3.71124861     -0.18544553      0.15935993
C      -2.56557162      0.02387014     -0.55302713
O      -2.32592172      1.02278947     -1.21969700
C      -1.65506653     -1.18959037     -0.42756710
O      -0.36711603     -0.97758434     -1.00866936
C       0.45438990     -0.19729520     -0.25891870
O       0.18577031      0.25124377      0.84432123
C       1.74782837      0.00485375     -0.96323667
C       1.82612310     -0.09915810     -2.36120457
C       3.03798082      0.12449205     -3.02237121
C       4.18075179      0.46261306     -2.29797150
C       4.11809393      0.57504215     -0.91018430
C       2.90972620      0.33312869     -0.24949922
O       2.91972120      0.49500375      1.14062993
C       2.85326631     -0.70632019      1.83708169
C       2.78179189     -0.41317585      3.30557211
O       2.86380745     -1.83144424      1.35425649
H      -6.31331180     -0.36901315      0.58786553
H      -5.53788533      0.34897340      1.99453107
H      -6.57791634      1.35253603      0.95531217
H      -4.16225907      1.81165722      0.51011554
H      -4.95191286      1.07972722     -0.92271709
H      -2.12181577     -2.01513527     -0.97439246
H      -1.55868988     -1.48521731      0.62355211
H       0.94464024     -0.34061687     -2.95112287
H       3.08673893      0.04196259     -4.10587505
H       5.11974615      0.64191552     -2.81619944
H       5.00668777      0.84485907     -0.34630851
H       1.90069890      0.19701516      3.51957992
H       3.69264041      0.09856022      3.62580066
H       2.69475721     -1.35305861      3.85811412
