15
Nc1cccnc1N
N      -1.29573191      1.59161619      0.50513548
C      -0.31328982      0.67181308      0.07675051
C       1.01812182      1.05928092     -0.04501842
C       1.98227996      0.10777952     -0.36552409
C       1.58167903     -1.21084220     -0.51347109
N       0.31191770     -1.63913118     -0.34333447
C      -0.59987837     -0.70420147     -0.02354852
N      -1.91184951     -1.15560301      0.20120145
H      -1.11669150      2.53608939      0.17975897
H      -2.21674252      1.25945821      0.21543622
H       1.30927472      2.09437441      0.10225779
H       3.02264764      0.38668004     -0.48874767
H       2.29884022     -1.98601091     -0.76869842
H      -2.20230806     -0.84121097      1.12236438
H      -1.86826938     -2.17009201      0.14543788
