28
NCCO.NCCO.O=C(O)O
N       0.83107743      0.86051820     -0.85554036
C       0.19086415     -0.45408881     -0.70995546
C      -0.62601551     -0.49852932      0.58474109
O      -1.51999549      0.61193515      0.62108257
N      -1.24245172      0.92073201     -0.14971303
C      -0.44261792      0.02052896      0.68608323
C       0.57900087     -0.76179230     -0.14681473
O       1.41192484      0.13442467     -0.88173595
O       0.46120208      0.95958788      1.16919700
C      -0.04011822      0.26116135      0.31550882
O       0.65945804     -0.46845665     -0.55637018
O      -1.33203017      0.07065271      0.06383050
H       1.35259120      0.87716777     -1.73288987
H       1.52648019      0.97965358     -0.11743910
H      -0.47658337     -0.59856419     -1.56608257
H       0.94284348     -1.24899746     -0.71835083
H       0.02585597     -0.43982906      1.46241786
H      -1.21184623     -1.42014925      0.64521656
H      -1.03527183      1.33088338      0.16413065
H      -0.59876746      1.42175076     -0.76918079
H      -1.80928914      0.36107231     -0.78788770
H       0.08374353      0.63341250      1.42559636
H      -1.10086372     -0.66736145      1.22565954
H       1.21410834     -1.37634035      0.49868330
H       0.07685377     -1.41973123     -0.86323126
H       1.82835860      0.73330410     -0.23745897
H       1.58657528     -0.27172677     -0.30311077
H      -1.33508701     -0.55121851     -0.68905538
