22
CC(=O)Nc1ccc(C)cc1
C       4.15541462      0.19949869     -0.16997990
C       2.74698525      0.71422985     -0.00320455
O       2.53999884      1.89182130      0.26619315
N       1.80456321     -0.28572880     -0.16111067
C       0.40213104     -0.16724504     -0.07031189
C      -0.26614194      1.02905201      0.18846701
C      -1.66393805      1.06109909      0.26206732
C      -2.41558139     -0.10484982      0.08799138
C      -3.91365046     -0.05861594      0.13440754
C      -1.74821441     -1.30126304     -0.18670907
C      -0.35177397     -1.33202671     -0.25984693
H       4.49488809     -0.23835201      0.77232160
H       4.20638608     -0.55059193     -0.96449275
H       4.81486346      1.02804683     -0.44415397
H       2.15530903     -1.21450945     -0.35593574
H       0.26884790      1.96188946      0.33583428
H      -2.15798471      2.01040876      0.45839286
H      -4.32315335     -1.01113032      0.48690011
H      -4.31270060      0.15065025     -0.86283237
H      -4.25923971      0.71821564      0.82457406
H      -2.31001724     -2.21902959     -0.34495167
H       0.13300831     -2.28156922     -0.46982919
