49
CC12CCC3C(CC=C4CC(O)CCC43C)C1CCC2=O
C      -3.78074812     -1.49663624     -0.76797763
C      -2.98376368     -0.23086533     -0.42540881
C      -2.05228334      0.12871965     -1.59651832
C      -0.88451094      1.02512482     -1.19159450
C      -0.01806991      0.43839812     -0.05449634
C      -0.75340495     -0.67520769      0.73237023
C      -0.01181124     -0.94452383      2.04792530
C       1.46729120     -1.08856537      1.84091920
C       2.12382597     -0.71491074      0.72506941
C       3.61623267     -0.93985513      0.60383991
C       4.35753111      0.33967341      0.21531384
O       5.72963426      0.03072599     -0.01969327
C       3.75771504      0.96443104     -1.04149659
C       2.25956393      1.22284272     -0.87824830
C       1.43114210     -0.03234125     -0.46869482
C       1.38019550     -1.03088334     -1.64859707
C      -2.25169202     -0.38617454      0.93463588
C      -2.55738106      0.89546283      1.72720299
C      -3.95696917      1.30745809      1.30841818
C      -3.97916820      0.88546066     -0.13290627
O      -4.75608621      1.35326625     -0.95708086
H      -4.31934634     -1.37906224     -1.71540131
H      -4.52922188     -1.72015305      0.00123535
H      -3.12085500     -2.36622079     -0.85926737
H      -1.64130635     -0.78756064     -2.03977657
H      -2.61814744      0.62426241     -2.39529595
H      -0.28888191      1.26315512     -2.07762304
H      -1.29270061      1.98813074     -0.85732257
H       0.13658438      1.27375373      0.64648598
H      -0.70617360     -1.60500964      0.14844527
H      -0.17969551     -0.13885580      2.77150028
H      -0.40006340     -1.86659295      2.49669718
H       2.01519269     -1.54294092      2.66460766
H       4.04295429     -1.32454594      1.53920948
H       3.81036772     -1.72452321     -0.13838136
H       4.31488487      1.05535846      1.04557980
H       6.18052730      0.86181876     -0.24739437
H       3.94785813      0.32241941     -1.91020764
H       4.27195661      1.90809489     -1.26237066
H       1.88106853      1.64407490     -1.81674919
H       2.13691104      2.00724420     -0.11881791
H       0.80009277     -1.92604485     -1.40257681
H       0.93393983     -0.58131487     -2.54113711
H       2.37693310     -1.37697728     -1.94147046
H      -2.69219180     -1.22568136      1.49146374
H      -1.86017538      1.70508766      1.49121036
H      -2.50062033      0.72729018      2.80767418
H      -4.72289378      0.74998538      1.85490824
H      -4.11424091      2.38320761      1.41179264
