39
C=CC(=O)O[Si](C(C)C)(C(C)C)C(C)C
C       4.19158948     -2.66999559      0.16356732
C       3.20861813     -1.93288431      0.69571546
C       2.10425079     -1.41936890     -0.14596257
O       1.99710062     -1.61135315     -1.34536531
O       1.27241643     -0.71582606      0.65497763
Si     -0.13583725      0.03169810      0.14118909
C       0.13738864      1.07608790     -1.48200932
C       1.40588059      1.93860977     -1.45385340
C      -1.06734948      1.92802469     -1.88910005
C      -0.79444445      1.15912170      1.63255309
C      -2.25925582      1.58698904      1.50585735
C       0.09694357      2.37534910      1.89914705
C      -1.54925477     -1.31909256     -0.20232057
C      -1.26798611     -2.18860094     -1.43195359
C      -1.79054908     -2.21066296      1.02290066
H       5.00069377     -3.04627432      0.78021762
H       4.21032418     -2.91321046     -0.89577999
H       3.19023651     -1.69074934      1.75117388
H       0.28260235      0.32474928     -2.26763439
H       1.57161637      2.40518290     -2.43144213
H       2.29504123      1.34338963     -1.22155249
H       1.34009985      2.74133480     -0.71401184
H      -1.99050652      1.33949136     -1.91423257
H      -0.91684030      2.34722226     -2.89034341
H      -1.21540120      2.76867658     -1.20392843
H      -0.71727124      0.49469240      2.50295123
H      -2.92610650      0.72463208      1.41157469
H      -2.57287537      2.14070683      2.39798358
H      -2.42615548      2.23484900      0.64138763
H      -0.19165642      2.86112521      2.83793087
H       1.15178015      2.09271057      1.98381679
H       0.00555249      3.12177705      1.10378730
H      -2.45698287     -0.73722126     -0.39989922
H      -2.11503461     -2.85524890     -1.62885593
H      -0.38196022     -2.81579745     -1.29042410
H      -1.11566816     -1.58168431     -2.32992027
H      -2.61127024     -2.91106582      0.83331598
H      -0.89940726     -2.79717537      1.27392540
H      -2.06032181     -1.62020851      1.90461694
