26
O=C1CC(=O)CC(c2ccccc2)C1
O       2.68435841      2.18510449      1.81179205
C       2.32951010      1.26471960      1.07558826
C       3.30531033      0.58095801      0.15674548
C       2.67765305      0.07220335     -1.11258625
O       3.31678007      0.01882937     -2.16315243
C       1.28604668     -0.50693279     -1.01866534
C       0.38239418      0.45031001     -0.23709504
C      -1.04955462     -0.04931726     -0.19263522
C      -2.07065974      0.71821503     -0.77339336
C      -3.39598262      0.27987901     -0.74537505
C      -3.71863070     -0.93036476     -0.13714656
C      -2.71649314     -1.70337895      0.44358165
C      -1.39022518     -1.26702485      0.41679408
C       0.93783358      0.68582319      1.16994947
H       3.75055502     -0.26502578      0.68863072
H       4.08814663      1.29856181     -0.10978502
H       0.89836231     -0.65222163     -2.03397602
H       1.36136032     -1.49129404     -0.54302770
H       0.39846289      1.41730669     -0.76153398
H      -1.84571077      1.66775203     -1.25508618
H      -4.17725198      0.88448112     -1.19917975
H      -4.75061692     -1.27069157     -0.11587063
H      -2.96835217     -2.64832213      0.91848792
H      -0.63053665     -1.89290393      0.87875965
H       0.99562746     -0.23852658      1.75570337
H       0.30161346      1.39186056      1.71675748
