10
CCC=O
C      -1.10206085      0.38051338     -0.01679554
C       0.05620485     -0.59813759     -0.01688780
C       1.39902589      0.08779962      0.03882402
O       1.56185332      1.30257922      0.08027485
H      -1.09523611      0.99781881      0.88765671
H      -2.05497040     -0.15590110     -0.05785276
H      -1.04957824      1.05202287     -0.88019969
H      -0.01474221     -1.26447089      0.84871607
H       0.03104563     -1.21011327     -0.92416779
H       2.26845811     -0.59211103      0.04043191
