51
CC1=C(/C=C/C(C)=C/C=C/C(C)=C/CO)C(C)(C)CCC1
C      -2.74486291      1.56969134     -2.64982760
C      -3.49474708      1.09148599     -1.42181114
C      -2.97254383      1.01584906     -0.16959722
C      -1.56592051      1.31061864      0.08384097
C      -0.56792441      0.48902989     -0.28791241
C       0.86359887      0.71023308     -0.07898030
C       1.29269579      2.11367710      0.29145727
C       1.70266281     -0.33422737     -0.24563264
C       3.14829511     -0.33247265     -0.12401523
C       3.88134857     -1.45835873     -0.19051646
C       5.34077845     -1.55485634     -0.10555103
C       6.12449964     -0.26764990     -0.02807866
C       5.90289484     -2.78200320     -0.12486185
C       7.35206572     -3.14793374     -0.07370531
O       7.57509614     -3.96352440      1.06765426
C      -3.81228217      0.62290134      1.06563057
C      -3.61212446      1.60361668      2.24660350
C      -3.39822946     -0.79177552      1.53402184
C      -5.33125815      0.63302408      0.73646689
C      -5.63508783     -0.02426699     -0.59924055
C      -4.93001648      0.72133171     -1.72588308
H      -2.69822633      0.78027433     -3.40556601
H      -3.26728935      2.43106501     -3.08429737
H      -1.71963784      1.89024823     -2.44364753
H      -1.37243983      2.22440015      0.63514378
H      -0.83784388     -0.44096009     -0.79460565
H       0.87491384      2.84592504     -0.41555738
H       2.37492969      2.25785695      0.27672808
H       0.95076600      2.36835254      1.30005093
H       1.27456397     -1.30370367     -0.49343513
H       3.63748923      0.62316031      0.01490227
H       3.35554267     -2.40576593     -0.31927948
H       7.20417088     -0.41483313      0.00969941
H       5.92490573      0.35253181     -0.91002745
H       5.84976442      0.30236197      0.86933560
H       5.25562356     -3.65829662     -0.19977962
H       7.61810866     -3.73028266     -0.96297034
H       8.02922431     -2.29754262     -0.02338334
H       7.08217724     -3.57142773      1.80644630
H      -3.80859660      2.63731393      1.94080749
H      -2.59320795      1.56076526      2.64989704
H      -4.29333986      1.36728880      3.07302055
H      -2.38484976     -0.79730072      1.95454006
H      -3.41489387     -1.52131867      0.71103434
H      -4.07098524     -1.16177971      2.31743950
H      -5.89860283      0.12876729      1.52814088
H      -5.70286698      1.66568798      0.70709062
H      -5.32259404     -1.07391766     -0.58800712
H      -6.71525970     -0.02233971     -0.77745054
H      -4.96833045      0.09759936     -2.62631149
H      -5.48215433      1.64147990     -1.95002022
