20
COC(=O)C(C)OC(C)=O
C       3.10672240      1.16842688      0.43312237
O       2.14873849      0.13486729      0.66413291
C       0.96374785      0.32376903      0.01239856
O       0.71816608      1.26234464     -0.73586376
C      -0.00547218     -0.81598599      0.33967483
C       0.44645001     -2.08632109     -0.36815148
O      -1.33612465     -0.53055789     -0.11674757
C      -1.98265735      0.42222913      0.60966058
C      -3.31720734      0.71914359     -0.00098594
O      -1.54912565      0.95036518      1.62369683
H       3.37692571      1.20971886     -0.62666505
H       2.72006865      2.13403072      0.77390396
H       4.00505552      0.93259514      1.01028645
H      -0.01772875     -0.98496839      1.42359567
H       1.44613269     -2.39425586     -0.04624635
H       0.46830698     -1.94138816     -1.45438612
H      -0.25286527     -2.90569548     -0.17020256
H      -3.94593815     -0.17405101      0.03051344
H      -3.18578676      1.06185656     -1.03046127
H      -3.80740828      1.51387687      0.56856287
