21
O=[N+]([O-])c1cc2c(cc1CO)OCO2
O      -2.67770390      1.73696409     -0.95332066
N      -1.98390354      1.71292632      0.07381884
O      -2.18932459      2.38590486      1.09357301
C      -0.78550554      0.88056133      0.05299568
C       0.42385757      1.49712220      0.41205784
C       1.55799234      0.72018957      0.36314945
C       1.51759187     -0.60083913     -0.01737901
C       0.33829032     -1.22869721     -0.36857253
C      -0.85609719     -0.48490659     -0.33415129
C      -2.15182609     -1.16466470     -0.68123718
O      -3.02577541     -1.04681266      0.42862491
O       2.74658148     -1.18265300      0.00157485
C       3.56516873     -0.08061762      0.44723600
O       2.81684241      1.13379431      0.66655909
H       0.47504181      2.53818697      0.71321841
H       0.34875930     -2.27739098     -0.65033267
H      -2.00256536     -2.23104138     -0.88054100
H      -2.60364038     -0.71792428     -1.57220177
H      -3.90446830     -1.33857490      0.12926836
H       4.05652574     -0.36474299      1.38495523
H       4.33415874      0.11321577     -0.30929556
