35
Cc1cc(C(C)(C)C)c(O)c(C)c1CC#N
C       1.81530647     -1.93382552     -1.96428072
C       1.21558738     -1.00047970     -0.94156565
C      -0.18186141     -0.83043630     -0.94401237
C      -0.84973216     -0.00194501     -0.02666999
C      -2.38984287      0.14561818     -0.05683473
C      -3.00710632     -0.36890308      1.26285279
C      -2.78941470      1.62114207     -0.28462348
C      -3.07185130     -0.66107862     -1.19325329
C      -0.04005135      0.66980715      0.90959441
O      -0.66177192      1.45095908      1.84938643
C       1.37160558      0.56729478      0.91842485
C       2.17968216      1.37939293      1.90393465
C       2.00541844     -0.31857090      0.01087877
C       3.51242253     -0.52154062      0.03427408
C       4.23527389      0.42015113     -0.83448019
N       4.83224487      1.15181796     -1.51023374
H       2.62049631     -1.43853774     -2.51532644
H       1.07401669     -2.25260135     -2.70505406
H       2.20136136     -2.83273753     -1.47364111
H      -0.74562418     -1.37882621     -1.69471087
H      -2.71663898      0.22875456      2.13127316
H      -4.10263068     -0.34507551      1.22114017
H      -2.70455550     -1.40409462      1.46060824
H      -2.49911016      2.27508410      0.54222398
H      -3.87583980      1.72308939     -0.39342625
H      -2.32564925      2.01731619     -1.19579413
H      -4.15969537     -0.52026258     -1.18111089
H      -2.89053500     -1.73749469     -1.09114240
H      -2.72034103     -0.34323637     -2.18190914
H      -0.13948047      1.43594421      2.66612459
H       1.68787355      2.32847673      2.14159330
H       3.15600662      1.66089925      1.50019819
H       2.32312523      0.81006315      2.82721971
H       3.88414543     -0.44596298      1.06292568
H       3.75716593     -1.55020150     -0.25458355
