46
O=S(=O)(O)c1cccc2cc(Nc3ccccc3)cc(Nc3ccccc3)c12
O      -3.95637012     -1.94733946     -1.05815308
S      -3.59888148     -2.59698652      0.18880733
O      -4.26042896     -3.81783116      0.59995903
O      -3.79454453     -1.52956629      1.38402470
C      -1.83783885     -2.89314932      0.14582463
C      -1.44717343     -4.23017285      0.34944094
C      -0.10781618     -4.57545564      0.33067792
C       0.84278218     -3.59045920      0.10406748
C       0.47977161     -2.24981564     -0.10687623
C       1.51674803     -1.33150536     -0.33987596
C       1.27739025      0.01412607     -0.59509881
N       2.30211188      0.94868404     -0.81333044
C       3.64237708      0.99156143     -0.38909177
C       4.10821518      0.30912589      0.74046033
C       5.45865588      0.34915332      1.10122496
C       6.36682519      1.06734141      0.32835905
C       5.92430880      1.74603268     -0.80329562
C       4.57308481      1.70496761     -1.15874857
C      -0.04648455      0.44340465     -0.58479110
C      -1.12082956     -0.43062570     -0.31210361
N      -2.45184346      0.08895929     -0.35164601
C      -2.88263316      1.42177604     -0.11854468
C      -2.31195601      2.21946868      0.88198413
C      -2.80454417      3.50066190      1.14229023
C      -3.89233039      3.98905549      0.42300159
C      -4.49554017      3.19203376     -0.54662777
C      -4.00162470      1.91118656     -0.80582296
C      -0.88404761     -1.83934919     -0.09299296
H      -3.44790553     -0.65906657      1.07936563
H      -2.18404079     -5.01246862      0.52543875
H       0.19689248     -5.60687345      0.48932255
H       1.89177625     -3.88609997      0.08980927
H       2.54503120     -1.68904732     -0.37002852
H       2.01755338      1.76585109     -1.34250318
H       3.41801298     -0.23663434      1.37764459
H       5.79700191     -0.17794824      1.98943271
H       7.41657775      1.09806060      0.60780917
H       6.62934497      2.30395676     -1.41381315
H       4.25305606      2.22895566     -2.05587482
H      -0.24946645      1.49012763     -0.79932295
H      -2.91395758     -0.29055626     -1.19429690
H      -1.48369792      1.84811545      1.48084723
H      -2.34541176      4.11129476      1.91569184
H      -4.27920052      4.98397884      0.62837940
H      -5.35713447      3.56261987     -1.09641212
H      -4.50181550      1.30045161     -1.55461224
