13
Oc1cc(Cl)c(Cl)c(Cl)c1Cl
O       2.28522927     -1.16055392      0.04036978
C       1.05530222     -0.56085295      0.01933355
C      -0.05037030     -1.40108876      0.03860655
C      -1.33392158     -0.85380137      0.01883478
Cl     -2.66149760     -1.96342271      0.04477816
C      -1.51250841      0.54009651     -0.02039816
Cl     -3.11871913      1.20653972     -0.04463318
C      -0.38567805      1.38659661     -0.03978070
Cl     -0.57940828      3.11472998     -0.08831609
C       0.90305224      0.82880016     -0.01968966
Cl      2.33837975      1.80161220     -0.04146402
H       2.96570349     -0.45987444      0.02340438
H       0.09443638     -2.47878104      0.06895461
