20
CCC(=O)c1ccccc1
C       3.42862343     -0.13329418     -0.08778082
C       2.01832594      0.39080224      0.13191649
C       0.95855529     -0.63230407     -0.24103503
O       1.24709260     -1.74838633     -0.66906522
C      -0.48178524     -0.26185606     -0.07924475
C      -0.88534753      0.99011161      0.40207179
C      -2.24527008      1.28666266      0.53462163
C      -3.20710744      0.33867043      0.18875485
C      -2.81403304     -0.90887318     -0.29072752
C      -1.45689111     -1.20859572     -0.42444104
H       3.59062112     -0.39859848     -1.13780055
H       4.16489803      0.62715308      0.19017615
H       3.61489554     -1.02697490      0.51704014
H       1.87654634      1.28618256     -0.48251104
H       1.90106544      0.65143219      1.18910647
H      -0.16596958      1.75366817      0.68146023
H      -2.55535150      2.25968713      0.90864627
H      -4.26402354      0.57205065      0.29287387
H      -3.56183017     -1.65029286     -0.56129350
H      -1.16301451     -2.18724493     -0.80036393
