11
O=c1nccc[nH]1
O      -1.94575006     -1.87408460      0.10981885
C      -0.97606988     -1.12364902      0.05922161
N       0.32017722     -1.57492316      0.02432814
C       1.26436822     -0.69686843     -0.02825644
C       1.08732148      0.76519129     -0.05501835
C      -0.18389924      1.16279820     -0.01978631
N      -1.18515945      0.23785936      0.03583722
H       2.31095518     -1.04242030     -0.05685281
H       1.94177880      1.42305209     -0.09952696
H      -0.47617409      2.20716934     -0.03313976
H      -2.15754817      0.51587522      0.06337481
