33
COc1cc(CC(C(C)=O)C(C)=O)ccc1O
C       3.59153347     -0.69561281     -2.27284524
O       3.78799242      0.13353017     -1.13308680
C       2.77131810      0.16589253     -0.21353056
C       1.55248078     -0.50754601     -0.30663400
C       0.59186987     -0.38484949      0.71472665
C      -0.74085210     -1.08988384      0.59416247
C      -1.74714941     -0.27548696     -0.22478798
C      -2.26367558      0.91685938      0.55340414
C      -2.26520071      2.24628182     -0.15421208
O      -2.69540920      0.80504123      1.70149467
C      -2.87252579     -1.16917971     -0.70151274
C      -3.88951389     -1.66320108      0.29629711
O      -2.94610367     -1.49450074     -1.88920962
C       0.86474310      0.42348409      1.82814645
C       2.07901315      1.09963293      1.92502243
C       3.01508940      0.96547158      0.90842182
O       4.19878831      1.64232094      1.02730708
H       2.74379674     -0.34712670     -2.87188692
H       4.48928692     -0.62619929     -2.89461577
H       3.46785052     -1.74406923     -1.98213659
H       1.32197749     -1.13435612     -1.16267172
H      -0.57522748     -2.07145954      0.12984222
H      -1.12573768     -1.30775556      1.59888579
H      -1.25162994      0.10937995     -1.12661447
H      -2.89857307      2.18735803     -1.04267643
H      -2.65999274      3.01796010      0.51239761
H      -1.24318496      2.51335770     -0.43434458
H      -4.48761229     -2.45753421     -0.16007522
H      -3.39088165     -2.07702415      1.17533405
H      -4.55500581     -0.84657327      0.58463390
H       0.13264207      0.53361013      2.62694528
H       2.29526990      1.72603418      2.78536070
H       4.70462373      1.40614395      0.22563537
