30
CCC1CCC(CCC(=O)O)C1
C      -3.94344921     -0.90719149     -0.41339472
C      -2.57027832     -0.73180717     -1.04484736
C      -1.47443083     -0.47791922     -0.00960583
C      -1.63577085      0.82801941      0.77307178
C      -0.21901828      1.28055536      1.13630137
C       0.73682250      0.26667559      0.49237877
C       2.05396358      0.90986966      0.04346125
C       3.04363733     -0.06943430     -0.58917323
C       3.60736942     -1.05441531      0.39989822
O       3.61002524     -0.96808433      1.61544028
O       4.18656490     -2.10632924     -0.21190329
C      -0.08960288     -0.34016357     -0.64101590
H      -3.94080904     -1.73008842      0.30844599
H      -4.26526005      0.00280471      0.10206444
H      -4.68605801     -1.13552638     -1.18454184
H      -2.32593976     -1.63713317     -1.61360314
H      -2.61038700      0.09324970     -1.76626070
H      -1.45287790     -1.31478952      0.70227055
H      -2.11930379      1.60052309      0.16319927
H      -2.25119255      0.68459276      1.66748553
H      -0.07760686      1.31176475      2.22217451
H      -0.05009688      2.29580984      0.75857185
H       0.94604230     -0.51803779      1.23137297
H       2.52356637      1.40174177      0.90473929
H       1.83961838      1.70006246     -0.68742480
H       2.56624774     -0.61599616     -1.40880418
H       3.88888069      0.49216668     -1.00293425
H       4.52388003     -2.65348138      0.52816225
H      -0.11668599      0.32884663     -1.51003837
H       0.30214970     -1.30940298     -0.96549070
