50
CC(C)(C)C(=O)OCn1cnc2c(cnn2COC(=O)C(C)(C)C)c1=O
C      -6.03807384     -1.13231419     -0.88942648
C      -6.16431800      0.27502805     -0.29171052
C      -7.59061086      0.46589003      0.24755763
C      -5.88882446      1.33843930     -1.36316865
C      -5.16123946      0.43129153      0.85306170
O      -5.45490555      0.63993015      2.02252557
O      -3.88247769      0.29399045      0.40620313
C      -2.90646222      0.49103796      1.42886792
N      -1.60665702      0.29363789      0.83360454
C      -1.10827630     -0.99889089      0.70057637
N       0.03170989     -1.32684229      0.16709457
C       0.73065723     -0.25199400     -0.26880741
C       0.34672098      1.06448431     -0.22859818
C       1.38869596      1.78200429     -0.82499281
N       2.38503852      0.98126453     -1.22583447
N       1.97582174     -0.26144026     -0.83922814
C       2.79857350     -1.43758859     -1.08522655
O       4.19289232     -1.11291645     -0.99071391
C       4.64884747     -0.96026341      0.28188765
O       3.98942364     -1.20404170      1.28418704
C       6.09488263     -0.45888063      0.28872716
C       6.57303049     -0.29416840      1.74007949
C       6.99404533     -1.47899634     -0.42154942
C       6.16615696      0.90173012     -0.41737026
C      -0.92068844      1.41004412      0.35012521
O      -1.33305631      2.56347110      0.39986033
H      -6.18216477     -1.90077961     -0.12119949
H      -6.78191379     -1.29712254     -1.67686145
H      -5.04805507     -1.29630254     -1.32987414
H      -8.33484140      0.36185154     -0.54992226
H      -7.82505723     -0.27365240      1.02202841
H      -7.71631136      1.45858860      0.69529411
H      -5.91917700      2.34661940     -0.93407714
H      -6.62980119      1.29091045     -2.16894934
H      -4.89948470      1.20871200     -1.81637023
H      -3.04763434     -0.25134615      2.22356885
H      -2.99054294      1.50235863      1.84233424
H      -1.77372831     -1.78417957      1.09579082
H       1.46656767      2.84891161     -0.99199788
H       2.52141580     -2.24316060     -0.39697446
H       2.59095880     -1.75782943     -2.11094783
H       7.60695626      0.06657200      1.78001855
H       6.52962941     -1.24546072      2.28312838
H       5.94753927      0.42208321      2.28552453
H       8.04615372     -1.17564022     -0.38221038
H       6.90932591     -2.46856257      0.04213454
H       6.72182427     -1.59122909     -1.47708797
H       5.48558764      1.62340844      0.04903569
H       5.88254948      0.82437340     -1.47306336
H       7.17929734      1.31696950     -0.37715622
