20
O=C(O)c1ccnc(C(=O)O)c1C(=O)O
O      -2.53605850     -0.96431371      2.20483990
C      -1.73519744     -0.17691730      1.73901237
O      -1.47174995      1.00410811      2.31333565
C      -1.04552411     -0.33850179      0.44683889
C      -1.76872679     -0.96298948     -0.57671585
C      -1.16426443     -1.12222997     -1.80878740
N       0.09803837     -0.72374061     -2.07164118
C       0.79761259     -0.14162601     -1.03822040
C       2.21949137      0.17418653     -1.39447778
O       3.08437424      0.58276916     -0.64439539
O       2.43329080     -0.08912243     -2.70987367
C       0.26396648      0.08513478      0.21902119
C       1.06455353      0.67688469      1.28197428
O       1.44744413      0.10206690      2.28032429
O       1.27752277      1.97609198      1.02592391
H      -1.97675954      0.99578199      3.15468789
H      -2.78606911     -1.31023884     -0.41463656
H      -1.69262017     -1.59231409     -2.63540883
H       1.60553879     -0.45059495     -3.10756220
H       1.88513699      2.27556504      1.73576087
