28
COC1(C)COC(C)(OC)CO1
C      -3.18251485      0.96102037     -0.55152397
O      -2.08925063      0.72519920      0.32335875
C      -1.34285216     -0.47139888      0.05352690
C      -2.23328405     -1.71455464      0.15701241
C      -0.22235925     -0.58157812      1.12116823
O       0.76767809      0.45486634      1.00170580
C       1.34286560      0.47141060     -0.31103541
C       2.23329592      1.71456793     -0.41451146
O       2.08926984     -0.72518202     -0.58087529
C       3.18249074     -0.96104301      0.29405018
C       0.22237165      0.58158909     -1.37867773
O      -0.76766399     -0.45485868     -1.25921406
H      -3.99964410      0.26382648     -0.34801103
H      -2.88133383      0.90007919     -1.60104427
H      -3.55347603      1.97220877     -0.36130219
H      -2.78524472     -1.73171723      1.10241885
H      -1.64075239     -2.63217485      0.07039458
H      -2.96440293     -1.74935158     -0.65808534
H      -0.64859068     -0.49139290      2.12627664
H       0.28893199     -1.54924991      1.05794651
H       2.96442980      1.74934728      0.40057706
H       1.64076411      2.63218852     -0.32786027
H       2.78524351      1.73174965     -1.35992658
H       2.88124049     -0.90020208      1.34355875
H       3.55349325     -1.97220696      0.10376468
H       3.99961598     -0.26380819      0.09064912
H       0.64860143      0.49140689     -2.38378674
H      -0.28892280      1.54925875     -1.31545276
