7
CN
C      -0.57197743      0.04674226     -0.02873103
N       0.84313884     -0.09347821     -0.32196926
H      -1.12218354     -0.82319609     -0.39786995
H      -0.97214121      0.93974142     -0.51679308
H      -0.73481584      0.13332284      1.04930403
H       1.34792467      0.70839591      0.05339145
H       1.21005450     -0.91152812      0.16266783
