32
CCOC(=O)C1(C)OC(=O)N(c2cc(Cl)cc(Cl)c2)C1=O
C       4.98012143     -0.96705860      1.04924728
C       4.09564574     -0.10759925      0.16752986
O       2.89268391     -0.83862065     -0.10570393
C       1.99811532     -0.18474303     -0.89632668
O       2.16802977      0.94334612     -1.34556951
C       0.72489978     -0.99664991     -1.10931814
C       0.94828517     -2.50183803     -1.15136789
O       0.09157859     -0.60870854     -2.32580615
C      -1.01569841      0.13356223     -2.03728337
O      -1.65306455      0.65907764     -2.93608144
N      -1.25654449      0.14386386     -0.69339281
C      -2.35945041      0.78517148     -0.04129438
C      -3.42542578      1.34691589     -0.76608862
C      -4.49816167      1.97379885     -0.11904636
Cl     -5.78526165      2.63725858     -1.05112906
C      -4.54157720      2.06485133      1.26401484
C      -3.49774078      1.52212560      1.99764573
Cl     -3.52342982      1.63113869      3.71602004
C      -2.42184131      0.89195398      1.35982751
C      -0.29301422     -0.60965440     -0.07546396
O      -0.22139934     -0.95739027      1.09632747
H       5.91436588     -0.45063366      1.28657636
H       5.21553821     -1.91415175      0.55255154
H       4.46654829     -1.21679581      1.98358960
H       3.85019544      0.82579795      0.68622516
H       4.61331222      0.11564155     -0.77198427
H       1.66445520     -2.76474661     -1.93811746
H       0.01566310     -3.03053382     -1.38078464
H       1.32729640     -2.89092929     -0.20040586
H      -3.46801510      1.30453161     -1.85074827
H      -5.37462514      2.55260225      1.76167174
H      -1.63148461      0.50841600      1.99876335
