9
C=C(F)C(F)(F)F
C       1.42011715     -0.09541920      0.14937888
C       0.24216130      0.45775039     -0.17580694
F       0.28055847      1.70610066     -0.70293999
C      -1.09899764     -0.19293497     -0.00232136
F      -1.01177603     -1.43960820      0.53372769
F      -1.90588158      0.52745260      0.81809103
F      -1.75231281     -0.32320422     -1.18524410
H       1.48276475     -1.09106584      0.57695386
H       2.34336641      0.45092878     -0.01183907
