32
C1CNCCNCCNCCN1
C       0.37945471     -2.59290441      0.52501074
C      -1.09336518     -2.12878033      0.42784015
N      -1.17293134     -0.68397282      0.63969229
C      -2.42925910     -0.09650404      0.17403970
C      -2.29694460      1.44452179      0.08191649
N      -1.38445127      1.86448767     -1.00003567
C      -0.35047908      2.80492483     -0.53324345
C       0.79720118      2.11787459      0.24813541
N       1.18186885      0.85434797     -0.39545825
C       2.10610746      0.06509849      0.42863643
C       2.37474818     -1.33314394     -0.18461922
N       1.17823850     -2.07993339     -0.60322850
H       0.79834918     -2.30801958      1.49811102
H       0.40110227     -3.68895127      0.49285649
H      -1.68861384     -2.64353647      1.18979017
H      -1.48715347     -2.41149558     -0.55626281
H      -0.38885056     -0.26046256      0.11941327
H      -2.71090878     -0.48629766     -0.81194429
H      -3.23144954     -0.34803620      0.87649126
H      -1.99475917      1.83892227      1.06021465
H      -3.28484449      1.86600124     -0.13540629
H      -0.87444090      1.03497064     -1.32205216
H       0.08199588      3.26708628     -1.42909629
H      -0.78777321      3.62028565      0.05459743
H       1.65680239      2.79462634      0.30948765
H       0.45026311      1.92232016      1.26970938
H       1.58489247      1.02428386     -1.31573694
H       3.05928984      0.59613722      0.53459408
H       1.68991972     -0.06804044      1.43410555
H       2.98848818     -1.18585053     -1.08228506
H       2.97971497     -1.93338458      0.50560636
H       1.46778766     -2.86657518     -1.18214773
