13
Oc1c(Cl)c(Cl)cc(Cl)c1Cl
O      -1.46526548     -2.04705074      0.01979848
C      -0.63822219     -0.94810470      0.00817245
C      -1.18217558      0.34483768      0.03179809
Cl     -2.90584677      0.51828465      0.07555008
C      -0.32893087      1.45357744      0.01961166
Cl     -0.91943810      3.07701086      0.04700584
C       1.05552119      1.26990968     -0.01587987
C       1.59501168     -0.02029601     -0.03937662
Cl      3.31830095     -0.15599184     -0.08282476
C       0.75124972     -1.13881117     -0.02750396
Cl      1.39351088     -2.74817381     -0.05604851
H      -2.39112547     -1.73914769      0.04499792
H       1.71741003      2.13395564     -0.02530081
