28
CCCC(=O)NNC(=O)CCC
C      -5.30539351      0.19896514     -0.74091208
C      -4.02693540      0.78387551     -0.16342682
C      -2.95125057     -0.28428795      0.01047219
C      -1.66970351      0.28287882      0.58622608
O      -1.49785475      1.46455829      0.87555934
N      -0.68952362     -0.67753386      0.76711681
N       0.60812126     -0.20341144      1.05071291
C       1.63159881     -0.70398188      0.26471725
O       1.48019513     -1.66853831     -0.48115147
C       2.93127453      0.05573844      0.43560278
C       4.05317445     -0.52162495     -0.42247875
C       5.34928010      0.25075591     -0.23916916
H      -5.12380411     -0.24637211     -1.72429136
H      -5.71492279     -0.57447773     -0.08333726
H      -6.06174373      0.98151602     -0.85690127
H      -3.66154597      1.57852830     -0.82489006
H      -4.24777754      1.25305590      0.80280607
H      -3.31075348     -1.07146715      0.68353704
H      -2.71879907     -0.74088341     -0.95879274
H      -0.71424753     -1.53727282      0.21678350
H       0.64307885      0.76501644      1.37251208
H       3.21322221      0.01925834      1.49441543
H       2.75442533      1.10287230      0.16316469
H       3.76477154     -0.49865268     -1.48021803
H       4.21911281     -1.57395606     -0.16253415
H       5.68269438      0.21587097      0.80292048
H       6.13876189     -0.17997064     -0.86294677
H       5.22454431      1.29994231     -0.52549673
