73
CC(C)(C)CC(=O)OCC(=O)C1(O)CCC2C3CCC4=CC(=O)CCC4(C)C3C(O)CC21C
C       4.88944881      1.76679694      0.56768942
C       5.39302910      1.49839143     -0.86003683
C       6.47724376      2.53887831     -1.20220463
C       6.02793602      0.09985458     -0.92528949
C       4.25238384      1.63956331     -1.89126606
C       3.03211092      0.79353556     -1.61386339
O       2.04752848      1.19028630     -0.99808932
O       3.16649897     -0.45106793     -2.14871354
C       2.05885713     -1.32015253     -1.90317226
C       2.01358040     -1.85746688     -0.47337961
O       3.00370201     -1.79850347      0.26717641
C       0.73703604     -2.56381980      0.02811350
O       1.16454409     -3.89358848      0.37702210
C      -0.37855694     -2.75122487     -0.99346277
C      -1.59749241     -3.09467358     -0.15224332
C      -1.44724782     -2.33448453      1.17915559
C      -2.45362463     -1.17265066      1.39852960
C      -3.90444072     -1.67999827      1.41166202
C      -4.87711045     -0.55650961      1.73310153
C      -4.72169422      0.59468359      0.76877198
C      -5.80492568      1.05506534      0.11747021
C      -5.73990042      2.24882158     -0.75310156
O      -6.72550166      2.58022502     -1.40638265
C      -4.47070745      3.05367204     -0.73873047
C      -3.26806275      2.12907899     -0.62725821
C      -3.30258719      1.18306324      0.61397114
C      -2.99952233      1.99054332      1.89644375
C      -2.27574009     -0.00053908      0.38462360
C      -0.76920330      0.35989628      0.21619273
O      -0.48093120      1.74779729      0.25424549
C       0.13206963     -0.32360122      1.24119672
C       0.04540419     -1.86917205      1.25706177
C       0.65339963     -2.32887864      2.60272045
H       4.17269635      1.00568977      0.89357274
H       5.71736251      1.76060369      1.28598932
H       4.39754213      2.74348872      0.63472340
H       6.07853235      3.55808163     -1.15027549
H       6.86748666      2.38383291     -2.21446233
H       7.32252956      2.47755095     -0.50670442
H       5.32932150     -0.67877962     -0.60616641
H       6.90653807      0.03288584     -0.27186745
H       6.35467507     -0.13798698     -1.94465483
H       3.90568597      2.68071916     -1.93467180
H       4.60841880      1.41275337     -2.90436630
H       1.13730864     -0.80014076     -2.16841429
H       2.16507628     -2.17877040     -2.57268175
H       1.96800463     -3.79653256      0.92680533
H      -0.16630892     -3.55848332     -1.70292085
H      -0.59196933     -1.85825640     -1.57989345
H      -2.51886395     -2.87510943     -0.69641969
H      -1.60223962     -4.17316869      0.05257765
H      -1.64297295     -3.06732192      1.97564095
H      -2.25587995     -0.78291345      2.40711382
H      -4.17759752     -2.11894069      0.44575420
H      -4.01436503     -2.47296820      2.16129348
H      -5.89807182     -0.95759798      1.71459237
H      -4.71042765     -0.19846591      2.75595134
H      -6.79045168      0.61594253      0.22706881
H      -4.51381128      3.77144278      0.08681111
H      -4.40695147      3.61525028     -1.67761700
H      -3.21880150      1.52279766     -1.54304915
H      -2.37354198      2.75785447     -0.62729035
H      -2.90888964      1.34752120      2.77687585
H      -3.79841123      2.70982698      2.11154133
H      -2.07431376      2.56605435      1.82122970
H      -2.56288288     -0.43434325     -0.58730242
H      -0.47689175      0.05083392     -0.78840216
H       0.43997950      1.85000396     -0.07134675
H       1.17025724      0.00274189      1.11463189
H      -0.13240441      0.07857277      2.23050993
H       1.70668213     -2.03706741      2.68101999
H       0.12036903     -1.87752996      3.44825128
H       0.59005811     -3.41389341      2.73859866
