24
COP(=S)(OC)Oc1cc(Cl)c(Cl)cc1Cl
C      -2.75604472     -2.25362140      0.18615444
O      -2.64071046     -0.87730334      0.49119198
P      -1.48417580     -0.02024052     -0.25241705
S      -1.62612169      0.11639228     -2.18195009
O      -1.54748208      1.36618578      0.58332996
C      -2.72226022      2.14860681      0.49535483
O      -0.14906065     -0.70658209      0.34188823
C       1.14099592     -0.31343354      0.10974850
C       1.48718468      0.98467884     -0.26756191
C       2.83107547      1.32157551     -0.47574596
Cl      3.18567354      2.94835323     -0.93914970
C       3.83223177      0.35901193     -0.30200763
Cl      5.50653625      0.70948483     -0.54131793
C       3.48946562     -0.93810217      0.08317686
C       2.14968306     -1.26952650      0.29075115
Cl      1.77066758     -2.88772652      0.76336197
H      -3.17008413     -2.38288578     -0.81685642
H      -1.78515798     -2.75091067      0.25600093
H      -3.43696972     -2.71340770      0.90698979
H      -2.78407207      2.62407116     -0.48665074
H      -2.67736753      2.92952949      1.25880030
H      -3.61184928      1.53834499      0.67144387
H       0.73409998      1.75651799     -0.39605523
H       4.26374246     -1.68901261      0.22151981
