52
CC12CC(O)C3C(CCC4C[C@@H](O)CCC43C)C1CCC2=O
C      -3.26037109     -0.21654295      1.60578324
C      -2.75894006      0.64779418      0.43521078
C      -1.87533701      1.78455590      0.92319933
C      -0.51906714      1.26424248      1.44437179
O       0.26728804      2.41300163      1.74667307
C       0.22985148      0.31193755      0.45224672
C      -0.73668183     -0.78132549     -0.13063782
C      -0.05223873     -1.62812518     -1.20893457
C       1.24229935     -2.25418676     -0.70548704
C       2.21869888     -1.22483695     -0.11797530
C       2.84084675     -0.37881693     -1.25021293
C       3.83239392      0.65796944     -0.73195287
O       4.25389859      1.48986511     -1.80768271
C       3.20656317      1.53507256      0.34341662
C       2.63603305      0.68382775      1.47020849
C       1.56433236     -0.34500992      1.00507112
C       1.26639726     -1.23094607      2.24343675
C      -1.98958452     -0.09115841     -0.67605048
C      -3.06159293     -0.91164146     -1.38706094
C      -4.21980538      0.08675231     -1.52497876
C      -3.98368986      1.04307953     -0.36924559
O      -4.70781036      1.99519762     -0.11220297
H      -3.93493087     -1.01421823      1.27676439
H      -3.83131359      0.39823834      2.31234292
H      -2.44799846     -0.68495318      2.16755855
H      -2.37618663      2.36063107      1.71242468
H      -1.70723309      2.51226363      0.11694903
H      -0.68819561      0.74525592      2.39201606
H       0.40466838      2.91582778      0.92522122
H       0.52385897      0.95077154     -0.39201955
H      -1.03854171     -1.46551185      0.66887035
H      -0.72185286     -2.43456603     -1.53108568
H       0.14496696     -1.01931491     -2.09897890
H       1.72244876     -2.80005747     -1.52699425
H       1.00361187     -3.00868849      0.05367581
H       3.04546155     -1.79317382      0.33300289
H       3.35589848     -1.03580054     -1.96345463
H       2.07026876      0.12996146     -1.84108301
H       4.72022903      0.15754508     -0.32723357
H       4.70368118      0.92253676     -2.45705943
H       2.43748231      2.18252313     -0.09278436
H       3.96706832      2.21753892      0.74276601
H       2.25721127      1.32509789      2.27073456
H       3.47474977      0.13851439      1.92753569
H       0.92474537     -0.62969351      3.09233701
H       0.50785495     -1.99361282      2.05379513
H       2.17011213     -1.75848625      2.57154996
H      -1.64396971      0.64820942     -1.41947179
H      -3.36175951     -1.78367866     -0.79599759
H      -2.73586717     -1.27047734     -2.36837255
H      -4.15014967      0.64328759     -2.46398131
H      -5.18980313     -0.40667572     -1.43486650
