22
CCC(=O)n1ncc2c(=O)[nH]cnc21
C       3.99358975     -0.14844044      0.01427730
C       2.61078872     -0.72564902     -0.24448030
C       1.51731191      0.23888990      0.16189402
O       1.70157968      1.35176291      0.64181260
N       0.21160612     -0.24546763     -0.05634586
N       0.01522730     -1.49873751     -0.59672935
C      -1.31239061     -1.63612242     -0.66594597
C      -1.98166370     -0.51231767     -0.18784287
C      -3.36033277     -0.14662040     -0.04113084
O      -4.30221117     -0.86245094     -0.35612138
N      -3.51960679      1.11381858      0.49962156
C      -2.45934782      1.92361400      0.85591759
N      -1.20727883      1.61048572      0.73084075
C      -1.00504571      0.37426890      0.20083435
H       4.76666758     -0.86215395     -0.28669658
H       4.14483048      0.77806624     -0.54959530
H       4.13240215      0.07888006      1.07649099
H       2.51754021     -0.94762321     -1.31327674
H       2.50499156     -1.65350658      0.32839045
H      -1.73033582     -2.55319987     -1.06346545
H      -4.47039015      1.42637718      0.62675429
H      -2.76793210      2.89612617      1.27172394
