22
Clc1ccc(-c2cc(Cl)c(Cl)cc2Cl)cc1
Cl      5.25238372      0.37206733     -0.06021849
C       3.53706323      0.24422469     -0.05147585
C       2.75873361      1.34817256     -0.39033092
C       1.36475977      1.24399370     -0.38246523
C       0.73715624      0.03551304     -0.03848143
C      -0.72863629     -0.06864048     -0.02216227
C      -1.43871334      0.49270381      1.05577412
C      -2.83455192      0.41882381      1.12095168
Cl     -3.61378146      1.13672747      2.48496914
C      -3.54506919     -0.22089846      0.10181370
Cl     -5.26750851     -0.35073335      0.11395338
C      -2.85917295     -0.78216318     -0.97679513
C      -1.46386991     -0.70657584     -1.03911081
Cl     -0.69056696     -1.41227578     -2.41675540
C       1.54023725     -1.06491106      0.30326473
C       2.93426311     -0.96207876      0.29565297
H       3.22776111      2.28981527     -0.66314679
H       0.76951791      2.11381989     -0.65440570
H      -0.89173575      0.98961614      1.85666748
H      -3.41124320     -1.27763601     -1.77243620
H       1.08300038     -2.01452096      0.57550735
H       3.53997314     -1.82504383      0.55922966
