17
O=C(O)c1ccc(O)cc1O
O      -2.82629586      0.74187980      0.89861421
C      -2.22980198     -0.13208973      0.29133168
O      -2.86446858     -1.19726788     -0.22395086
C      -0.77008302     -0.12987719      0.05156533
C      -0.14795138     -1.16853369     -0.65582306
C       1.23261182     -1.14192969     -0.86832176
C       1.98742818     -0.08238782     -0.37616124
O       3.33067849     -0.10027301     -0.60839942
C       1.38779823      0.95668002      0.32775343
C       0.00948936      0.93047746      0.54010985
O      -0.50896208      1.98838725      1.24158040
H      -3.80717527     -1.06394326      0.00934007
H      -0.72569060     -2.00282430     -1.04609715
H       1.71790615     -1.94547640     -1.41624851
H       3.72550264      0.69416928     -0.21112245
H       1.96848906      1.78749065      0.71551063
H      -1.47947517      1.86551850      1.33031883
