74
CC(C)CCCC(C)C1CCC2C3CC=C4CC(O)CCC4(C)C3CCC12C
C      -6.68172057     -1.04900824     -0.58085824
C      -6.37120267     -0.96403479      0.91193920
C      -5.27997277     -1.96134036      1.30346356
C      -6.08669290      0.47162358      1.39787566
C      -5.19222016      1.38005268      0.54300392
C      -3.73828528      0.91135985      0.41432944
C      -2.82746320      1.96843047     -0.25048588
C      -2.49502995      3.08904944      0.74307312
C      -1.54438448      1.44018629     -0.95253712
C      -1.83528582      0.47421029     -2.13686870
C      -0.58612238     -0.40497269     -2.30336693
C       0.44777305      0.25286239     -1.39892541
C       1.69760892     -0.55100813     -1.02178856
C       2.46304569     -0.98889701     -2.28062485
C       3.86182105     -1.44334387     -2.00459172
C       4.51660192     -1.24572642     -0.84629359
C       5.92364874     -1.77375816     -0.66781097
C       6.88181872     -0.69791697     -0.15427016
O       8.15191616     -1.27427422      0.14301885
C       6.34107865     -0.04516046      1.11319418
C       4.94561261      0.53546994      0.88673588
C       3.90336020     -0.48635986      0.34085852
C       3.56814991     -1.51627443      1.44632649
C       2.61558150      0.31249531     -0.11150372
C       1.83832336      0.97451195      1.05559326
C       0.53996991      1.67825854      0.62194471
C      -0.38009488      0.74415769     -0.18357499
C      -0.87652960     -0.40523069      0.71930116
H      -5.80233370     -0.82867989     -1.19397323
H      -7.47647480     -0.34662450     -0.85337646
H      -7.02333031     -2.05581409     -0.84492541
H      -7.27632126     -1.28770803      1.44525919
H      -4.35907226     -1.82371928      0.73346407
H      -5.03880408     -1.88077540      2.36850638
H      -5.62167630     -2.98637694      1.12025650
H      -7.05747581      0.98088674      1.47588863
H      -5.69233750      0.43882751      2.42142116
H      -5.62827039      1.50411396     -0.45513710
H      -5.21507111      2.37334123      1.00577559
H      -3.36446922      0.66016184      1.41156015
H      -3.73324727     -0.00264338     -0.17845763
H      -3.41683868      2.43453588     -1.05400928
H      -3.39023689      3.66242614      1.00351785
H      -1.77643771      3.79698563      0.31712501
H      -2.08068536      2.69162528      1.67386237
H      -1.10321907      2.33619309     -1.42090130
H      -2.02309851      1.05325383     -3.04858664
H      -2.70935777     -0.16235527     -1.98109485
H      -0.79674018     -1.43306879     -1.98799760
H      -0.26067227     -0.43898965     -3.34799572
H       0.80782850      1.14091662     -1.94619497
H       1.39764037     -1.45865857     -0.48633717
H       1.91726868     -1.80778810     -2.76468433
H       2.51408939     -0.16853553     -3.00729921
H       4.34994371     -1.97260894     -2.82073483
H       5.91368939     -2.62466775      0.02497267
H       6.32166198     -2.18027439     -1.60667258
H       7.03584812      0.06872720     -0.92374617
H       8.49769781     -1.65688901     -0.68149083
H       7.02489704      0.74974950      1.43605507
H       6.32950864     -0.76939347      1.93707960
H       5.04081590      1.37397254      0.18327023
H       4.59757807      0.96593733      1.83333522
H       4.42516602     -2.14923713      1.69985695
H       2.75872796     -2.18855234      1.14399823
H       3.26787893     -1.02578435      2.37783420
H       2.96321212      1.14801361     -0.74104703
H       1.58730797      0.23342512      1.82004883
H       2.47493749      1.71804952      1.54828651
H       0.03315614      2.04880159      1.51830257
H       0.80112394      2.56097046      0.02427313
H      -1.61624809     -1.03955971      0.22249505
H      -1.32878691     -0.00998321      1.63375099
H      -0.07007847     -1.06758897      1.04478149
