22
Cc1c([N+](=O)[O-])cc([N+](=O)[O-])c(O)c1[N+](=O)[O-]
C      -2.54883859      0.28633391      0.43420323
C      -1.08478890      0.05732832      0.15588135
C      -0.56955034     -1.22046784     -0.12978595
N      -1.43812052     -2.39251110     -0.15295778
O      -2.09630661     -2.62647574      0.86684724
O      -1.42819985     -3.07096170     -1.18655754
C       0.79259793     -1.43913042     -0.39414971
C       1.68782317     -0.35901708     -0.34871016
N       3.10732296     -0.61713131     -0.61878681
O       3.87099938      0.35973475     -0.62654227
O       3.45472838     -1.78712653     -0.81857749
C       1.23056650      0.92982912     -0.03767168
O       2.04469109      2.02718053      0.04737608
C      -0.14283766      1.10888777      0.21147514
N      -0.59617239      2.44562884      0.54796604
O      -0.86991750      3.19585163     -0.39727859
O      -0.73016271      2.69951307      1.75162027
H      -2.75721622      0.12555533      1.49641229
H      -2.86597540      1.29795192      0.16398002
H      -3.17788059     -0.38256240     -0.16199871
H       1.14132058     -2.44731724     -0.62356305
H       2.97591730      1.80890616     -0.17918193
