20
COC(=O)c1ccc([N+](=O)[O-])cc1
C       3.92988613     -0.24613117      0.15689070
O       2.54047829     -0.00919963      0.39089526
C       1.73174286     -0.45568614     -0.60133597
O       2.09350796     -1.01536820     -1.62385892
C       0.30426009     -0.17234319     -0.28384386
C      -0.67098209     -0.57145213     -1.21148335
C      -2.02695078     -0.33117998     -0.96565312
C      -2.40970002      0.31347516      0.21767973
N      -3.83200828      0.56876702      0.48184390
O      -4.12679600      1.14148049      1.54037837
O      -4.65187803      0.19639919     -0.36913537
C      -1.44571371      0.71688186      1.15181118
C      -0.09095058      0.47272728      0.89828678
H       4.12796367     -1.31983527      0.07998539
H       4.26089994      0.27589556     -0.74638521
H       4.48886909      0.14891169      1.00964945
H      -0.37645942     -1.07317712     -2.13299260
H      -2.76301964     -0.65076046     -1.70123483
H      -1.72888807      1.21878647      2.07549790
H       0.64573859      0.79180857      1.63300457
