29
C=CCC(C(=O)NC(N)=O)C(C)C
C      -2.09598875      2.19408046     -1.03452626
C      -0.98591626      1.52251861     -1.36435279
C      -0.92468771      0.03529808     -1.59038671
C      -0.23448006     -0.79838277     -0.48753603
C       1.27087773     -0.51416930     -0.49300586
O       2.05481242     -1.26971599     -1.06867330
N       1.65904911      0.64222613      0.15749324
C       2.90079790      1.20795386      0.18235681
N       3.94101983      0.41827245     -0.15751900
O       3.05751976      2.38078997      0.50293934
C      -0.88186202     -0.70805644      0.92256759
C      -2.35766339     -1.12667353      0.90134720
C      -0.14519467     -1.60124770      1.93272419
H      -3.04816899      1.69520205     -0.88292861
H      -2.07842664      3.27458807     -0.92071054
H      -0.07428562      2.09157329     -1.54307482
H      -1.93534377     -0.35642911     -1.75981545
H      -0.39421201     -0.12377164     -2.53912660
H      -0.32153261     -1.84998113     -0.80183770
H       0.94397898      1.28620823      0.46203206
H       3.74595455     -0.40545663     -0.72192804
H       4.83266183      0.87314932     -0.29266173
H      -0.83278073      0.32207768      1.29464708
H      -2.96303982     -0.44939801      0.29414003
H      -2.47608745     -2.13975872      0.50203597
H      -2.77981382     -1.11239840      1.91228092
H      -0.62976051     -1.55780297      2.91436391
H       0.89230189     -1.28386682      2.07308587
H      -0.13972919     -2.64682906      1.60606923
