30
c1ccc2c(c1)ccc1ccc3ccccc3c12
C       4.08943243     -0.80466710     -0.31556661
C       3.09136268     -1.66203764     -0.74061878
C       1.74994256     -1.27174223     -0.64507518
C       1.33437815     -0.03036023     -0.09474533
C       2.39610318      0.85588265      0.23687952
C       3.74175973      0.45538368      0.15519442
C       2.11886731      2.16438195      0.61567517
C       0.81328170      2.63084968      0.61972412
C      -0.25845069      1.77992486      0.34110612
C      -1.53572687      2.34457512      0.33377952
C      -2.66099973      1.56920280      0.09985879
C      -2.54802365      0.19036553     -0.03636785
C      -3.72578804     -0.56538425     -0.17627060
C      -3.68890346     -1.95372942     -0.21307314
C      -2.47287906     -2.59739325     -0.07568409
C      -1.29711188     -1.84687298      0.04740853
C      -1.26787043     -0.42769000      0.00695620
C      -0.05760370      0.39671019      0.07602255
H       5.13332468     -1.09624827     -0.38496226
H       3.34539852     -2.62955466     -1.16554274
H       1.02706585     -1.95140140     -1.08387952
H       4.53909332      1.13965141      0.43922133
H       2.92109404      2.85744094      0.85936502
H       0.64312414      3.67926364      0.85839150
H      -1.67272850      3.41158841      0.50051594
H      -3.63433936      2.05456411      0.08203322
H      -4.69413366     -0.07188732     -0.23457743
H      -4.60748202     -2.52516700     -0.30907859
H      -2.42880812     -3.68286423     -0.04420591
H      -0.39337913     -2.41278500      0.24751608
