52
Cc1ccc(C2(O)CCN(CCCC(=O)c3ccc(F)cc3)CC2)cc1
C       8.49450811     -0.38519078      0.66371485
C       7.01955473     -0.40975357      0.39508635
C       6.13927348     -1.01909211      1.29238014
C       4.76545238     -1.06865078      1.02608182
C       4.23445931     -0.51796582     -0.14977116
C       2.74189811     -0.55324890     -0.49660839
O       2.63383152     -1.13481182     -1.81022937
C       1.87600472     -1.40824031      0.44412116
C       0.39256264     -1.33196058      0.08027287
N      -0.09034411      0.05872518      0.11891366
C      -1.54157893      0.08644643     -0.14946673
C      -2.19194686      1.41390075      0.27022621
C      -3.69110833      1.45292278     -0.04378544
C      -4.53568329      0.56874890      0.86064168
O      -4.06656347     -0.02885950      1.82630984
C      -5.99552187      0.42752622      0.56299417
C      -6.63254957      1.16901877     -0.44262577
C      -7.99969595      0.99607766     -0.68108868
C      -8.72516131      0.08914491      0.08321776
F     -10.03379411     -0.07161398     -0.15049834
C      -8.11142908     -0.65071081      1.08549722
C      -6.74635643     -0.48079260      1.32708360
C       0.66067966      0.86902989     -0.85349157
C       2.16105875      0.86912141     -0.54949116
C       5.13657291      0.08138089     -1.05037231
C       6.50806910      0.13069404     -0.78595551
H       8.98284334     -1.21472034      0.14372981
H       8.93391302      0.55776063      0.32066593
H       8.70273123     -0.46994843      1.73557946
H       6.51473286     -1.46037993      2.21355499
H       4.12972027     -1.54863466      1.76500161
H       3.31736209     -1.82592147     -1.87054215
H       1.98910999     -1.07581716      1.48438014
H       2.18718239     -2.45977248      0.39792191
H       0.21554689     -1.78510376     -0.90390431
H      -0.15791407     -1.93408916      0.81411324
H      -1.74316167     -0.11925755     -1.20884949
H      -2.02482414     -0.71613946      0.42051655
H      -2.02394109      1.58852469      1.33994514
H      -1.72650370      2.24717830     -0.26682163
H      -4.03950635      2.48391884      0.08871808
H      -3.84772457      1.15657466     -1.08635905
H      -6.09370726      1.89003458     -1.05024331
H      -8.50451783      1.56432710     -1.45655461
H      -8.69491421     -1.34983087      1.67530289
H      -6.26962629     -1.06056361      2.11596023
H       0.48748290      0.51213716     -1.87728970
H       0.32770737      1.91145554     -0.82013685
H       2.65493664      1.46289685     -1.32889502
H       2.33846062      1.38357123      0.40476345
H       4.77015634      0.51280085     -1.98077875
H       7.17226313      0.59715225     -1.50994818
