35
Cc1ccc(C(=O)Nc2ccc(S(=O)(=O)[O-])cc2)cc1N.[Na+]
C      -5.78960587     -0.58704947     -0.73043863
C      -4.35415179     -0.15541999     -0.60356026
C      -3.84988845      0.79904088     -1.50369932
C      -2.51589523      1.19965026     -1.44305743
C      -1.66356501      0.62830568     -0.49789627
C      -0.23499073      1.04648199     -0.47808142
O       0.02177277      2.22111650     -0.71015868
N       0.65603961      0.02144047     -0.22624192
C       2.05647431      0.11182932     -0.08081820
C       2.76763585      1.31565487     -0.09134014
C       4.15742643      1.31846634      0.07890901
C       4.83415410      0.11062909      0.25453224
S       6.62744533      0.09151521      0.51560174
O       6.78616602     -0.93337201      1.54502731
O       6.91972790      1.45448688      0.95102321
O       7.11726805     -0.26710486     -0.81177149
C       4.13777340     -1.09798138      0.27483440
C       2.75199033     -1.09385658      0.10489510
C      -2.16476527     -0.30347817      0.42013097
C      -3.51855186     -0.66497096      0.40870851
N      -3.95112155     -1.68379844      1.27346412
Na      0.00000000      0.00000000      0.00000000
H      -6.36043384     -0.26182525      0.14515725
H      -5.85457387     -1.67575905     -0.82603066
H      -6.26370056     -0.15411636     -1.61778978
H      -4.49242076      1.23062112     -2.26815557
H      -2.13574723      1.93933424     -2.14476330
H       0.28176852     -0.91746031     -0.19650134
H       2.27213771      2.27181051     -0.22176502
H       4.71144065      2.25383384      0.07685407
H       4.68234101     -2.02693098      0.42438929
H       2.23113691     -2.04625299      0.12325430
H      -1.50712752     -0.72918362      1.17335498
H      -3.40847176     -1.74988495      2.12987259
H      -4.94768762     -1.66577182      1.46242587
