28
CCCCOC(=O)c1ccc(O)c(I)c1
C      -4.88855103      0.54088923      0.58148012
C      -3.95144471     -0.54856847      0.08532605
C      -2.50553398     -0.06278984      0.03608174
C      -1.56387181     -1.15407159     -0.46394059
O      -0.22296068     -0.64510247     -0.54645179
C       0.51089048     -0.73000085      0.59018843
O       0.13473529     -1.18944259      1.65657767
C       1.87476615     -0.17317691      0.37675092
C       2.28664141      0.35476903     -0.85559102
C       3.57815124      0.86601347     -1.00337683
C       4.45776339      0.85136396      0.07492099
O       5.70367154      1.36771774     -0.14277412
C       4.05839839      0.32832182      1.30656832
I       5.35560491      0.29350457      2.94054039
C       2.76794619     -0.18410586      1.45935084
H      -4.85817376      1.41452781     -0.07744438
H      -4.61619888      0.86252103      1.59179575
H      -5.91848386      0.17155513      0.60868211
H      -4.02928926     -1.41884026      0.74732561
H      -4.27067805     -0.87026933     -0.91279279
H      -2.42108019      0.81455349     -0.61733708
H      -2.18810962      0.27349635      1.03053782
H      -1.84811322     -1.46040447     -1.47657207
H      -1.60755720     -2.05097851      0.16556274
H       1.61440958      0.37564547     -1.71012860
H       3.89767312      1.27531534     -1.95854312
H       6.20336509      1.29168585      0.69019112
H       2.44602947     -0.59412913      2.41512333
