27
CCC(C)(O)C(C)(C)C
C       2.90796095      0.55325720     -0.20421967
C       1.41523766      0.88042250     -0.21918105
C       0.47623452     -0.30454006      0.14386266
C       0.75426265     -1.49717390     -0.79153239
O       0.84828126     -0.71401054      1.47088360
C      -1.05479756      0.11808172      0.15941671
C      -1.30098147      1.29196426      1.13797754
C      -1.54978562      0.55422564     -1.23588179
C      -1.96618054     -1.04136212      0.63331773
H       3.48913397      1.46893343     -0.35699166
H       3.17621852     -0.13826606     -1.00800984
H       3.21608557      0.11817487      0.75110784
H       1.16708211      1.27937072     -1.20813845
H       1.27959138      1.69064599      0.50572491
H       1.77135869     -1.88040327     -0.65291234
H       0.62922101     -1.22950985     -1.84472371
H       0.10668660     -2.35015101     -0.56918706
H       0.46507491     -1.59074850      1.64030477
H      -0.93256216      1.06221216      2.14335568
H      -2.37134634      1.51420454      1.22567592
H      -0.81885173      2.21422056      0.79900176
H      -1.00225019      1.42390685     -1.61112797
H      -1.45471623     -0.25176261     -1.97020150
H      -2.60935988      0.83551504     -1.20437105
H      -1.93519946     -1.89429157     -0.05094496
H      -1.69247214     -1.39255266      1.63332474
H      -3.01392649     -0.72036332      0.68346958
