13
c1ncc2[nH]cnc2n1
C      -2.18672668     -0.62819423     -0.05461441
N      -2.11484564      0.72208563     -0.04335572
C      -0.89317988      1.29293175     -0.01127938
C       0.19979497      0.45722073      0.00783543
N       1.55352620      0.63871078      0.04016978
C       2.13393869     -0.60116047      0.04465448
N       1.23582485     -1.56060075      0.01723075
C       0.02809566     -0.91616787     -0.00587689
N      -1.17807079     -1.51040371     -0.03776445
H      -3.18728512     -1.04949217     -0.08055632
H      -0.84199612      2.37353136     -0.00241529
H       2.04385619      1.52185608      0.05769977
H       3.20706768     -0.74031713      0.06827226
