30
CCn1cc(C(=O)O)c(=O)c2cc3c(cc21)OCO3
C      -0.36842882      3.31993201     -0.35423748
C      -0.48735348      2.22357144     -1.40323322
N      -0.80551603      0.92538206     -0.77923406
C      -2.12533197      0.51548628     -0.63853424
C      -2.55589521     -0.62531631     -0.08247711
C      -4.00684493     -0.89917882     -0.02324967
O      -4.85429175     -0.12930473     -0.45291749
O      -4.33281217     -2.07879252      0.54851500
C      -1.52679073     -1.54277753      0.44049504
O      -1.86166656     -2.61207181      0.94831438
C      -0.10393386     -1.13808561      0.34202238
C       0.86943243     -2.00529910      0.86502349
C       2.18132803     -1.61094210      0.77302275
C       2.53157097     -0.41728123      0.19471541
C       1.59230043      0.45292459     -0.32816806
C       0.23033078      0.10705280     -0.26828142
O       3.87672748     -0.21202210      0.20571152
C       4.33227741     -1.41707894      0.85707766
O       3.25764944     -2.30866394      1.22027964
H       0.43703868      3.11425085      0.35725473
H      -1.29825682      3.42021931      0.21559091
H      -0.15935761      4.28099374     -0.83435083
H      -1.28614598      2.50017454     -2.10413976
H       0.41572218      2.16934660     -2.02094081
H      -2.84433071      1.23018327     -1.03890172
H      -3.55305655     -2.60608881      0.85150509
H       0.60504628     -2.95064091      1.32715701
H       1.94618323      1.37904331     -0.76332549
H       5.01388121     -1.94546446      0.18062095
H       4.88052463     -1.13955185      1.76468541
