37
CCN(CC)C(=O)/C(Cl)=C(\C)OP(=O)(OC)OC
C      -2.93224037      0.47662722      2.70746723
C      -2.55366297      0.65582019      1.24512145
N      -2.59325269     -0.61027603      0.50454766
C      -3.89985296     -1.06578726      0.03010582
C      -4.20387195     -0.54722008     -1.36712372
C      -1.48219040     -1.38566479      0.18220792
O      -1.54990344     -2.42598293     -0.47202274
C      -0.14781324     -0.90034257      0.62772167
Cl      0.34684807     -1.41825416      2.20003777
C       0.63423218     -0.14930048     -0.16833038
C       0.25409933      0.29421688     -1.55348825
O       1.87577673      0.27035319      0.30038948
P       3.02529519      1.06593079     -0.50274928
O       2.60702348      2.37514339     -1.09790601
O       3.57041085     -0.01216322     -1.57222006
C       4.51912096      0.45836901     -2.50797522
O       4.23258224      1.17945553      0.56138387
C       4.63046102      0.01363112      1.25365471
H      -2.86810580      1.43363447      3.23452132
H      -3.95546836      0.10239298      2.81114831
H      -2.26867384     -0.23454075      3.20753759
H      -3.24256415      1.35751868      0.76151412
H      -1.55923996      1.10506921      1.18653966
H      -4.67311643     -0.73735725      0.73232814
H      -3.92125827     -2.16145128      0.01943140
H      -3.45198526     -0.88599008     -2.08728957
H      -4.21500899      0.54720041     -1.38760891
H      -5.18262675     -0.90527082     -1.70061599
H       0.99063691     -0.05265582     -2.28392947
H       0.19791373      1.38582795     -1.59866309
H      -0.71767785     -0.08794935     -1.87813242
H       4.05318336      1.18427960     -3.17959149
H       5.36751967      0.91770038     -1.99334513
H       4.87976740     -0.38794451     -3.09789489
H       3.84494925     -0.30047338      1.94586495
H       4.85685833     -0.79534808      0.55443352
H       5.53183498      0.24080181      1.82862065
