23
COP(=S)(OC)Oc1nc(Cl)c(Cl)cc1Cl
C      -2.66158727      2.00630624     -1.00783286
O      -2.42805768      0.61526250     -0.90601066
P      -1.41124636      0.08119294      0.24436743
S      -1.96107755      0.49688630      2.06215705
O      -1.30048431     -1.47625746     -0.18650412
C      -2.42502197     -2.30817660      0.01088565
O      -0.01903483      0.70020523     -0.28492192
C       1.19024436      0.34478896      0.24882218
N       1.21348585     -0.66270897      1.14239590
C       2.42299830     -0.99977864      1.65170573
Cl      2.33279270     -2.29806791      2.77557812
C       3.61594648     -0.37266692      1.30442984
Cl      5.14529663     -0.81556104      1.95995915
C       3.56123835      0.66510978      0.37559770
C       2.32994375      1.03163257     -0.16407621
Cl      2.26139928      2.31507910     -1.30971870
H      -1.72490845      2.56696716     -0.94941055
H      -3.13077546      2.20991167     -1.97382126
H      -3.34044760      2.33064185     -0.21526926
H      -2.27786525     -3.23247185     -0.55366592
H      -3.33799710     -1.82287340     -0.34443914
H      -2.52314130     -2.55835278      1.07022350
H       4.46829942      1.18293127      0.07496683
