21
NC(=O)NCc1ccccc1
N       3.80811481      0.52826363     -0.66519105
C       2.99217670     -0.41612065     -0.13296531
O       3.42848052     -1.44260683      0.36305590
N       1.67936555     -0.06795845     -0.22282542
C       0.66650285     -1.01318381      0.18469947
C      -0.70366875     -0.39764354      0.09272784
C      -1.53100643     -0.65484984     -1.00943546
C      -2.79205643     -0.06301193     -1.10037131
C      -3.23493216      0.79544996     -0.09559262
C      -2.41723967      1.06559168      1.00010370
C      -1.15626801      0.47481794      1.09296959
H       3.53447621      1.48543487     -0.49474549
H       4.78701197      0.34014204     -0.48567399
H       1.45495160      0.51179387     -1.01801841
H       0.87210480     -1.34431377      1.20980792
H       0.74222979     -1.89899453     -0.45746798
H      -1.19903994     -1.32054603     -1.80330904
H      -3.42966685     -0.27196399     -1.95557819
H      -4.21732432      1.25490174     -0.16691840
H      -2.76091485      1.73720008      1.78252936
H      -0.52329738      0.69759755      1.94965079
