42
CCOP(C)(=O)SCCN(C(C)C)C(C)C
C       4.44427347     -0.80187057     -1.52179094
C       4.16240801     -1.12348968     -0.06768229
O       2.90546423     -1.77022919      0.01994099
P       2.12815492     -1.85830126      1.43751750
C       3.30893911     -2.63470773      2.53696488
O       0.87580142     -2.68179089      1.32767914
S       1.68741130      0.05124089      2.16051765
C       0.73033188      0.83911730      0.82741592
C      -0.67813514      0.23891326      0.69081088
N      -1.47487205      0.87941831     -0.37585839
C      -1.94807738      2.23689104     -0.03239121
C      -3.20787895      2.30431204      0.83572292
C      -2.13561581      3.07124010     -1.30819525
C      -2.48679600     -0.01193306     -0.98858561
C      -3.24112847     -0.94985473     -0.03291203
C      -1.80486947     -0.83354414     -2.09298153
H       3.66609684     -0.14795986     -1.93138761
H       5.41348977     -0.30586071     -1.62620472
H       4.44650169     -1.71468139     -2.12735174
H       4.16502153     -0.20337926      0.52442714
H       4.93645813     -1.79299778      0.32054936
H       3.61864463     -3.60562642      2.13904491
H       4.19799342     -2.01496989      2.67389780
H       2.85699791     -2.79572444      3.51947155
H       0.69021644      1.90461722      1.06576110
H       1.28357948      0.73249380     -0.11215986
H      -1.21228255      0.27751154      1.64764524
H      -0.54066451     -0.81623366      0.44293272
H      -1.16117543      2.75608659      0.52604970
H      -3.42359932      3.34333781      1.10590343
H      -4.09003416      1.91695185      0.31529617
H      -3.07864122      1.74781530      1.76965852
H      -2.34878891      4.11561913     -1.04918545
H      -1.22258253      3.06625957     -1.91480655
H      -2.96436498      2.71263198     -1.92765214
H      -3.24489061      0.58999904     -1.50175798
H      -2.58641509     -1.69722454      0.42887288
H      -4.01839844     -1.49776425     -0.57810320
H      -3.73784656     -0.39744582      0.76919225
H      -1.32447658     -0.17540081     -2.82595975
H      -2.54301508     -1.44048176     -2.62925842
H      -1.04323493     -1.51298495     -1.69578156
