39
CCCCN(CC)c1c([N+](=O)[O-])cc(C(F)(F)F)cc1[N+](=O)[O-]
C      -4.54607482      2.24459608     -0.94629730
C      -3.38265402      2.04435516      0.01172678
C      -2.56198784      0.80794989     -0.35463522
C      -1.39130845      0.61206636      0.61399825
N      -0.58233939     -0.55902391      0.20406732
C      -1.08842934     -1.86715957      0.67483922
C      -0.52128118     -3.02333751     -0.13615992
C       0.80357841     -0.33659452      0.26400380
C       1.59682131     -0.32580534      1.42697321
N       1.00845703     -0.49301374      2.73882181
O       0.38490177      0.46799627      3.20652707
O       1.22078420     -1.57029090      3.31080012
C       2.99528986     -0.12866623      1.40954479
C       3.66690394      0.09137497      0.19983695
C       5.16630068      0.27947769      0.16882634
F       5.58289078      1.03260142     -0.88386530
F       5.64055352      0.89524708      1.28492279
F       5.82694964     -0.90420151      0.07687149
C       2.91539636      0.10237059     -0.97968021
C       1.52253552     -0.10028439     -0.92661085
N       0.81938999     -0.05889712     -2.19285938
O       0.35124787      1.03531950     -2.53595628
O       0.81958587     -1.09746065     -2.86738371
H      -5.22297154      1.38450653     -0.92672075
H      -4.19022049      2.37889936     -1.97279053
H      -5.11892659      3.13413363     -0.66620081
H      -2.74393221      2.93503694     -0.00820897
H      -3.76992663      1.94487270      1.03240034
H      -2.18332939      0.90794183     -1.37857564
H      -3.21150167     -0.07503540     -0.34742885
H      -0.78391304      1.52711531      0.61476279
H      -1.77074088      0.47211858      1.63339763
H      -0.89326753     -2.01815073      1.74000982
H      -2.17839024     -1.89183120      0.56129292
H      -0.73360361     -2.89567294     -1.20242405
H       0.56249559     -3.11279263     -0.01270591
H      -0.97211459     -3.96668705      0.18819011
H       3.55757858     -0.14125430      2.34536159
H       3.40525251      0.26817974     -1.94034000
