46
Cc1cc(C2(c3ccc(O)c(C)c3)CCCCC2)ccc1O
C      -4.44655029     -1.25233595      2.11597259
C      -3.48331225     -1.12972551      0.97030219
C      -2.35290334     -0.29993842      1.07733817
C      -1.43184761     -0.16262568      0.02124271
C      -0.16387376      0.74195505      0.10764221
C       1.08499396     -0.17843725     -0.00651274
C       1.38959505     -1.07559643      1.03760526
C       2.48887158     -1.93510169      0.96812932
C       3.30046423     -1.92388765     -0.15942809
O       4.37704840     -2.76036213     -0.24439691
C       3.02515013     -1.07138230     -1.22792190
C       3.88730880     -1.07796336     -2.45746558
C       1.91147989     -0.21654379     -1.14530328
C      -0.09566549      1.55064907      1.45075095
C       1.01934433      2.59693900      1.48446408
C       0.83419832      3.61755052      0.37239095
C       0.75159117      2.94169409     -0.98713593
C      -0.29641055      1.82160772     -1.02494792
C      -1.67581016     -0.90771658     -1.15086067
C      -2.79241120     -1.73827444     -1.26954004
C      -3.68747793     -1.84221527     -0.21153737
O      -4.78325908     -2.65204485     -0.31103722
H      -5.45252379     -0.95797443      1.79963913
H      -4.16133995     -0.60625479      2.95285027
H      -4.46834505     -2.28348257      2.48309659
H      -2.20877722      0.23374458      2.01252570
H       0.75443844     -1.13229987      1.91904936
H       2.68412120     -2.60786324      1.79704141
H       4.42375443     -3.28699929      0.56978824
H       3.81847344     -2.04720211     -2.96167891
H       4.93088756     -0.87988465     -2.19198320
H       3.57772357     -0.30630462     -3.17011666
H       1.69968088      0.41398622     -2.00370274
H      -1.04297976      2.08769807      1.60228591
H       0.01743134      0.89489868      2.32145007
H       2.00061172      2.11684166      1.39710213
H       1.00465369      3.11153676      2.45227619
H      -0.08326162      4.19198247      0.55064214
H       1.66363775      4.33356455      0.38182228
H       1.74043242      2.55459822     -1.25224506
H       0.50335040      3.69077356     -1.74844470
H      -0.28494562      1.36872156     -2.02355352
H      -1.28461099      2.29793436     -0.93841980
H      -0.98201055     -0.85850095     -1.98771851
H      -2.93857751     -2.29558472     -2.18920910
H      -4.77234899     -3.08017359     -1.18224801
