50
C#CCOS(=O)OC1CCCCC1Oc1ccc(C(C)(C)C)cc1
C       6.30384575      1.52909407     -4.74998897
C       6.53155091      1.09698188     -3.65226431
C       6.80264367      0.56680158     -2.30708914
O       5.70334573      0.82091217     -1.43658917
S       4.52291477     -0.27126959     -1.49007887
O       5.11561902     -1.59423907     -1.10710348
O       3.68624244      0.27060868     -0.22641300
C       2.68167968     -0.61375491      0.28513045
C       3.18119710     -1.24631754      1.59378880
C       3.35004294     -0.21486702      2.70821829
C       2.07140306      0.58423970      2.93220456
C       1.57686154      1.23136208      1.63905203
C       1.39031935      0.20609329      0.50780323
O       0.34589025     -0.71904761      0.84034919
C      -0.94325549     -0.42099067      0.50542242
C      -1.41619260      0.79049867      0.01253673
C      -2.77961938      0.95856482     -0.27671528
C      -3.70686992     -0.07711458     -0.07975807
C      -5.20704213      0.07683735     -0.38572305
C      -6.03199022     -0.19943374      0.89073137
C      -5.60175449      1.48532159     -0.88475241
C      -5.61537006     -0.93036378     -1.48215544
C      -3.20724914     -1.29364510      0.41868479
C      -1.84902524     -1.45939342      0.70954415
H       6.10073924      1.91381824     -5.72337019
H       7.66900190      1.08914870     -1.88462033
H       7.06944330     -0.49725813     -2.34052083
H       2.45631724     -1.42308525     -0.42431804
H       4.14652653     -1.73884045      1.42895781
H       2.47569301     -2.02010079      1.92115485
H       3.63293757     -0.72177427      3.63796840
H       4.17052957      0.46908480      2.45794679
H       1.29356724     -0.07522643      3.33689387
H       2.25065111      1.36065103      3.68489960
H       2.29322848      1.99954622      1.32275102
H       0.63274902      1.74337358      1.85413964
H       1.17431464      0.72798372     -0.43304656
H      -0.76135803      1.63921631     -0.15101169
H      -3.08907179      1.92869323     -0.65786831
H      -5.73920231      0.47577213      1.70356259
H      -5.90512683     -1.22602308      1.25272421
H      -7.10382133     -0.05578803      0.70822908
H      -5.36435320      2.25636626     -0.14193164
H      -6.67891231      1.54734618     -1.08063526
H      -5.08985456      1.74247237     -1.81967097
H      -6.67547120     -0.82397405     -1.74206614
H      -5.03019762     -0.77755761     -2.39724005
H      -5.46459816     -1.96895833     -1.16700068
H      -3.87133722     -2.13782485      0.59146074
H      -1.49758182     -2.41259867      1.09777728
