13
O=[N+]([O-])O[Bi](O[N+](=O)[O-])O[N+](=O)[O-]
O      -3.20464307     -1.03170715      0.31521109
N      -2.05434443     -1.40276693      0.01848902
O      -1.48376203     -2.38985914      0.78257297
O      -1.33404142     -0.87742057     -1.02714582
Bi      0.47837140      0.19243641     -0.82678743
O       1.81126332     -0.65075172      0.58064077
N       2.82851646     -1.50341856      0.28155463
O       3.99679257     -1.09282501      0.38743703
O       2.64031642     -2.79559619     -0.13190152
O       0.20782221      2.27898549     -0.59165113
N      -0.95487933      2.86608955     -0.16033017
O      -2.00249059      2.21305837     -0.08443119
O      -0.92892151      4.19377544      0.18479041
