29
CNS(=O)(=O)c1cc(OC)c(N)cc1C
C      -1.45301377     -2.90556674     -1.11701439
N      -1.65861609     -1.67968886     -1.87468975
S      -0.33149156     -0.72197695     -2.24389041
O      -0.75391716      0.19643928     -3.27696397
O       0.79906343     -1.60365920     -2.44133205
C      -0.09009065      0.20222230     -0.73608586
C       1.05328047     -0.09755210      0.02571605
C       1.30964891      0.58988661      1.21217306
O       2.38957634      0.37301581      2.03455562
C       3.24741838     -0.71240849      1.70603479
C       0.44160265      1.61905516      1.62081899
N       0.61330690      2.24287553      2.87255430
C      -0.71260631      1.88492301      0.87457864
C      -0.99387800      1.19577559     -0.31792008
C      -2.22732746      1.57614894     -1.08771790
H      -2.41085982     -3.23023884     -0.70038766
H      -1.08075080     -3.69749388     -1.77221872
H      -0.75984568     -2.75523388     -0.28552260
H      -2.37762002     -1.66108246     -2.59601898
H       1.72972984     -0.87074732     -0.32420000
H       2.70055972     -1.66109002      1.69380955
H       3.75749271     -0.53548822      0.75355821
H       4.01302266     -0.78022271      2.48493139
H       0.28486689      3.20138438      2.90216910
H       1.57522455      2.13994804      3.19421471
H      -1.40622085      2.64237893      1.23484583
H      -2.81865186      0.69631595     -1.35353137
H      -2.88375030      2.22058627     -0.49213263
H      -1.95615311      2.13149389     -1.99033389
