37
CCOC(=O)C(C)c1ccc2cc(OC)ccc2c1
C       5.15704282     -0.25166017     -1.20890447
C       4.38594438      0.83015945     -0.47814002
O       3.49216797      0.19632392      0.44397676
C       2.74863401      1.06365567      1.19105515
O       2.82425407      2.28423033      1.12427510
C       1.80602002      0.29266512      2.10621272
C       1.41571936      1.13872728      3.32051187
C       0.58318111     -0.21094150      1.35989383
C       0.31432019     -1.58328373      1.29964403
C      -0.80655858     -2.05838653      0.61434453
C      -1.68524225     -1.17357734     -0.02781343
C      -2.81597864     -1.63565767     -0.72172200
C      -3.68749230     -0.74983182     -1.36166256
O      -4.74320826     -1.34532089     -1.99616232
C      -5.67309529     -0.48484924     -2.64200523
C      -3.42741142      0.61743904     -1.31058898
C      -2.30560128      1.09389026     -0.62323374
C      -1.42641151      0.21175912      0.02305295
C      -0.29575746      0.67697028      0.71643532
H       5.71777624     -0.87037799     -0.50095211
H       5.85580727      0.18508182     -1.92770368
H       4.47208193     -0.91894677     -1.74230964
H       5.08274667      1.47775983      0.06543184
H       3.81213990      1.42505385     -1.19737427
H       2.37827841     -0.56045112      2.49651233
H       2.30774143      1.45770752      3.87100998
H       0.87020889      2.04450594      3.03335331
H       0.77937874      0.56889937      4.00645838
H       0.97570664     -2.29969757      1.78278425
H      -0.98916343     -3.13049720      0.58390673
H      -3.02842291     -2.70148086     -0.76955996
H      -5.19500908      0.07623697     -3.45174692
H      -6.15409999      0.18789917     -1.92414240
H      -6.45350322     -1.10999252     -3.08646966
H      -4.07298513      1.34204447     -1.79409783
H      -2.12257905      2.16615392     -0.59778818
H      -0.09663028      1.74778960      0.75120559
