10
O=C([O-])[O-].[Cu+2].[Cu+2].[OH-].[OH-]
O      -0.16976569      1.26244446     -0.01160328
C       0.00540924      0.02781063     -0.00030526
O      -1.11859151     -0.78021914      0.01374506
O       1.28294796     -0.51003596     -0.00183652
Cu      0.00000000      0.00000000      0.00000000
Cu      0.00000000      0.00000000      0.00000000
O       0.49435271      0.00000000      0.00000000
O       0.49338791      0.00000000      0.00000000
H      -0.49435271      0.00000000      0.00000000
H      -0.49338791      0.00000000      0.00000000
