31
CC(=O)Oc1ccccc1C(=O)Oc1ccccc1
C       2.18912040      3.05150059      0.71061549
C       2.19225158      1.61471745      0.28352611
O       2.15030836      1.23553046     -0.88011038
O       2.26346573      0.80705282      1.41394821
C       2.18066719     -0.56364587      1.13781483
C       3.33935740     -1.31138284      1.36460698
C       3.32935190     -2.68632433      1.13461979
C       2.16342535     -3.31246853      0.69307426
C       0.99936526     -2.56642591      0.48479809
C       0.99613988     -1.18093604      0.70984297
C      -0.24345387     -0.38456508      0.52553072
O      -0.50349054      0.62396320      1.16417918
O      -0.98985699     -0.95849674     -0.48654160
C      -2.10251498     -0.19527872     -0.84168230
C      -1.94809446      0.87663090     -1.71997575
C      -3.07256300      1.60241048     -2.10939760
C      -4.33532438      1.24386035     -1.63098771
C      -4.47818658      0.15632831     -0.76523690
C      -3.35771250     -0.57413087     -0.37160216
H       1.33264397      3.24270711      1.36201511
H       2.10246297      3.69092222     -0.17249409
H       3.12460410      3.28747622      1.22366601
H       4.24656693     -0.82493763      1.71232689
H       4.23101526     -3.27134900      1.30056585
H       2.15858937     -4.38574454      0.51548959
H       0.09894341     -3.08060646      0.15622158
H      -0.96372294      1.14660699     -2.09184745
H      -2.96608256      2.44652830     -2.78546738
H      -5.21053556      1.81266076     -1.93500027
H      -5.46332789     -0.12007824     -0.39905335
H      -3.46341282     -1.42252536      0.29655531
