18
COCc1ccc([N+](=O)[O-])o1
C       3.45169973     -0.02950291      0.12525959
O       2.07539862      0.16206418      0.42293241
C       1.24833063     -0.22366529     -0.67421391
C      -0.16401984      0.00874234     -0.27747235
C      -0.77871921      0.49068915      0.86530889
C      -2.17526856      0.47116975      0.62243853
C      -2.31444939     -0.02179300     -0.65267147
N      -3.46997589     -0.27362253     -1.45402530
O      -3.29860189     -0.72959508     -2.59196909
O      -4.56428073     -0.01088586     -0.93598316
O      -1.10976750     -0.30810796     -1.21550353
H       3.65698294     -1.08518775     -0.07688536
H       4.03819661      0.27981603      0.99451322
H       3.74757956      0.58328591     -0.73172353
H       1.40225181     -1.28429136     -0.90127668
H       1.49264738      0.38061603     -1.55474291
H      -0.26609901      0.81485145      1.76203173
H      -2.97190527      0.77541689      1.28736569
