40
CCc1cnc(C2=NC(C)(C(C)C)C(=O)N2)c(C(=O)O)c1
C       5.93344627      0.48610370     -0.44767939
C       5.09639840     -0.76973872     -0.25892464
C       3.62318398     -0.47371461     -0.31158283
C       2.92350790     -0.50942241     -1.51441118
N       1.60095426     -0.24893164     -1.63240171
C       0.92874173      0.07476448     -0.48497884
C      -0.53128261      0.24602625     -0.68142209
N      -1.43570061      0.32673269      0.24663534
C      -2.73722302      0.47313305     -0.48647199
C      -3.27883928      1.87833590     -0.21327630
C      -3.71510279     -0.66101108     -0.09143476
C      -4.17288385     -0.56973733      1.36957738
C      -3.14011793     -2.06324437     -0.34371483
C      -2.33249606      0.38631823     -1.95668667
O      -3.05709045      0.39755051     -2.93630976
N      -0.98224852      0.29446083     -1.95533795
C       1.54846386      0.17290055      0.75090099
C       0.85070186      0.58602063      1.96552892
O       0.75998484     -0.06070701      2.99004577
O       0.43438178      1.85853968      1.85612440
C       2.91300634     -0.11924103      0.83958581
H       6.99924979      0.24044169     -0.40495843
H       5.72390973      1.22458203      0.33364206
H       5.73200096      0.95590861     -1.41639814
H       5.34351644     -1.23872340      0.70128211
H       5.35326004     -1.50533680     -1.03089101
H       3.42301365     -0.76224865     -2.44748412
H      -3.35847840      2.08065936      0.85984186
H      -4.26588486      2.01482204     -0.66835408
H      -2.61823752      2.64725817     -0.63195650
H      -4.61160912     -0.56852406     -0.71986140
H      -4.84274863     -1.40039043      1.61813462
H      -4.72812808      0.35418601      1.55713892
H      -3.32358885     -0.60711842      2.05970327
H      -2.85978363     -2.19974974     -1.39266309
H      -2.25768997     -2.25591748      0.27531490
H      -3.88468222     -2.83134220     -0.10652715
H      -0.40339702      0.18517990     -2.77509811
H      -0.06712070      2.02058814      2.68276297
H       3.41661231     -0.05941306      1.80281318
