56
CCCCCCOC(=O)CCCCC(=O)OCCCCCC
C      10.00988826     -1.09919693      0.19725271
C       9.14338556     -0.86119918     -1.02994896
C       7.66078415     -0.66571812     -0.70218853
C       7.38692290      0.59468386      0.12263465
C       5.89664799      0.91067650      0.26095860
C       5.11964187     -0.13998579      1.04998930
O       3.76776452      0.30391518      1.25519229
C       2.89187047      0.02356781      0.24850379
O       3.16911018     -0.56453122     -0.78664107
C       1.52493227      0.55238539      0.61575645
C       0.51068219      0.33791113     -0.50660128
C      -0.86562819      0.88174945     -0.12583901
C      -1.87396895      0.67736746     -1.25003777
C      -3.21639098      1.23968794     -0.86264183
O      -3.58664576      2.37583523     -1.12384425
O      -3.93125642      0.31873100     -0.16024564
C      -5.22114691      0.77779625      0.26923128
C      -5.89239985     -0.35883668      1.03336341
C      -7.24151660      0.02285038      1.64338325
C      -8.31418230      0.47611592      0.64770073
C      -8.64777847     -0.52084426     -0.46449427
C      -9.17332319     -1.85146391      0.05125347
H      11.03733101     -1.32395442     -0.10662363
H       9.63726202     -1.94506169      0.78366134
H      10.04166255     -0.21671497      0.84301214
H       9.52173509      0.00823717     -1.58023575
H       9.24015531     -1.72516544     -1.69832451
H       7.10616039     -0.60575378     -1.64688166
H       7.29150057     -1.55119487     -0.17204669
H       7.82688178      0.49564602      1.12157933
H       7.87548341      1.45183333     -0.35691037
H       5.78360954      1.88122441      0.76067071
H       5.44872912      1.04011679     -0.73170301
H       5.56342917     -0.26695430      2.04332772
H       5.13277816     -1.12213474      0.56477025
H       1.61800830      1.62349683      0.82746064
H       1.19147755      0.03586381      1.52257341
H       0.86338142      0.83127884     -1.42097573
H       0.43399153     -0.73234700     -0.73576002
H      -1.22110910      0.38470205      0.78543478
H      -0.79035047      1.95049100      0.11099030
H      -1.54807488      1.18125910     -2.16738679
H      -1.98672876     -0.38385503     -1.50037525
H      -5.81312818      1.05410656     -0.61002258
H      -5.09842022      1.64992373      0.92199726
H      -5.99612509     -1.23162767      0.37772183
H      -5.22216144     -0.68660624      1.83877818
H      -7.61837426     -0.82986164      2.22058308
H      -7.08470184      0.83037492      2.36978524
H      -8.00715542      1.42321939      0.18824925
H      -9.23051914      0.69890839      1.20909870
H      -7.77156493     -0.69407186     -1.09861946
H      -9.41222774     -0.07215032     -1.11052705
H      -8.40701147     -2.39588813      0.61087332
H     -10.04046707     -1.70533858      0.70298139
H      -9.48284960     -2.48349904     -0.78741907
