25
O.O.O.O.O.O.O.[Cl-].[Cl-].[Cl-].[La+3]
O      -0.00570308      0.38515871     -0.00000000
O      -0.00086783      0.36003678     -0.00000000
O      -0.00650185      0.38840325     -0.00000000
O      -0.00344155      0.38033241     -0.00000000
O      -0.00439129      0.38636848     -0.00000000
O      -0.00253884      0.37949828     -0.00000000
O      -0.00615937      0.37717739     -0.00000000
Cl      0.00000000      0.00000000      0.00000000
Cl      0.00000000      0.00000000      0.00000000
Cl      0.00000000      0.00000000      0.00000000
La      0.00000000      0.00000000      0.00000000
H      -0.79607794     -0.19467500     -0.00000000
H       0.80178102     -0.19048370      0.00000000
H      -0.82644698     -0.18031370     -0.00000000
H       0.82731481     -0.17972308      0.00000000
H      -0.79892061     -0.19659797     -0.00000000
H       0.80542246     -0.19180528      0.00000000
H      -0.81331853     -0.19139508     -0.00000000
H       0.81676008     -0.18893733      0.00000000
H       0.80552124     -0.19163390      0.00000000
H      -0.80112995     -0.19473458     -0.00000000
H       0.80301472     -0.18887612      0.00000000
H      -0.80047588     -0.19062216     -0.00000000
H       0.81305065     -0.18646174      0.00000000
H      -0.80689128     -0.19071565     -0.00000000
