15
O=C(O)c1cccc(Br)c1
O       2.36458720      1.82112082      0.34035914
C       2.00087436      0.66303180      0.25544216
O       2.88024920     -0.35193563      0.31925457
C       0.60274444      0.20386126      0.07710257
C       0.27281696     -1.15546513     -0.01138064
C      -1.05821282     -1.54377504     -0.17935043
C      -2.06181322     -0.57791078     -0.25931603
C      -1.73092926      0.77410562     -0.17099335
Br     -3.09457082      2.07925631     -0.27991357
C      -0.40563817      1.17199348     -0.00333069
H       3.74548072      0.09421846      0.43562831
H       1.04489657     -1.91925337      0.04936859
H      -1.31203008     -2.59905935     -0.24777534
H      -3.09565601     -0.88814107     -0.39010184
H      -0.15279909      2.22795263      0.06500655
