32
C=CCC1(C(C)CC)C(=O)NC(=O)NC1=O
C       2.28444577      2.87644763      0.52344482
C       1.28312103      2.28609542     -0.14139948
C       1.37202973      0.90980520     -0.74857179
C       0.40744786     -0.15671576     -0.14012700
C      -1.11420387      0.24642315     -0.22881556
C      -1.55942855      0.74905066     -1.61354586
C      -2.04786229     -0.89843596      0.25240253
C      -3.46408508     -0.43253763      0.57044860
C       0.81335708     -0.32727853      1.32873002
O       0.19653197      0.14687485      2.27990808
N       1.95624422     -1.04363273      1.55309936
C       2.31088950     -2.10764564      0.78726371
O       2.98300020     -3.02809033      1.24004558
N       1.81101613     -2.14953138     -0.47661364
C       0.70970448     -1.45146112     -0.89514008
O       0.07510162     -1.85570432     -1.86547434
H       3.24337756      2.39142694      0.67639614
H       2.16099195      3.87386595      0.93650027
H       0.35027963      2.83366838     -0.26461774
H       2.41174874      0.56002237     -0.67392709
H       1.19574737      1.00103703     -1.82815375
H      -1.26900995      1.08898265      0.45980622
H      -2.59001989      1.11653532     -1.58260976
H      -0.95254933      1.58874827     -1.96091732
H      -1.51729963     -0.03758769     -2.37130460
H      -2.10564603     -1.68999358     -0.50310015
H      -1.64390234     -1.36228609      1.15875471
H      -3.99008319     -0.09250411     -0.32573031
H      -3.45526105      0.38275624      1.30056428
H      -4.04212676     -1.25952139      0.99581685
H       2.20019713     -1.14531320      2.52987716
H       1.98624598     -3.01350060     -0.97300986
