26
COC(=O)c1ccc(C(=O)OC)c(N)c1
C       5.06775016     -0.06786415     -0.20109028
O       3.65814061     -0.28572716     -0.27859215
C       2.91424432      0.79217591      0.07255716
O       3.34960021      1.87715757      0.42465118
C       1.46091275      0.48862878     -0.03222517
C       0.55114615      1.50635133      0.27217489
C      -0.82246573      1.26157222      0.21284549
C      -1.30488278     -0.00411323     -0.16235150
C      -2.77374106     -0.25425040     -0.23500311
O      -3.27928065     -1.15705155     -0.88630513
O      -3.44816420      0.64684093      0.52427932
C      -4.86425515      0.46018523      0.52637777
C      -0.39726082     -1.02449201     -0.52219058
N      -0.80773209     -2.34852573     -0.77085107
C       0.98039495     -0.77373183     -0.40962443
H       5.57002821     -0.99237596     -0.49895400
H       5.36299542      0.17162061      0.82530617
H       5.37086888      0.72813134     -0.88847162
H       0.90708704      2.49209348      0.56842126
H      -1.50780519      2.06864350      0.46275713
H      -5.12109251     -0.52216400      0.93506229
H      -5.26764708      0.57823554     -0.48420680
H      -5.30602629      1.22806973      1.16739672
H      -0.18753395     -2.88148496     -1.37185429
H      -1.78472798     -2.40619568     -1.08073699
H       1.67944678     -1.58172949     -0.61364019
