22
CC(=O)Nc1ccc(Br)cc1C
C      -3.51259398      0.66183999      0.26102422
C      -2.08636226      1.14795545      0.34246227
O      -1.84003074      2.32012857      0.60037827
N      -1.17869031      0.13866779      0.07164118
C       0.23397958      0.21935609      0.05290362
C       0.92145962      1.40571925      0.33978999
C       2.31877507      1.45578240      0.31471792
C       3.04407057      0.31461387      0.00167362
Br      4.93238785      0.37807472     -0.03316416
C       2.38436572     -0.87707987     -0.28645815
C       0.97792348     -0.94044788     -0.26462175
C       0.32302099     -2.25799502     -0.58517327
H      -3.61332061     -0.32403926      0.72410107
H      -3.81992211      0.61134628     -0.78682556
H      -4.16567785      1.35692395      0.79661609
H      -1.57703649     -0.76378020     -0.14717153
H       0.39795594      2.32298704      0.59118897
H       2.82149638      2.39217911      0.54198149
H       2.96539122     -1.76405204     -0.52998836
H      -0.31886336     -2.15860484     -1.46644095
H       1.06247886     -3.03539712     -0.80554678
H      -0.27080758     -2.60417829      0.26691181
