17
CCSS(=O)CC
C      -3.08972668      0.30225947      1.26222871
C      -2.14559739     -0.18311308      0.17657987
S      -0.43884448      0.29149442      0.58068250
S       0.57498726     -0.27635843     -1.12999898
O      -0.05020585     -1.61978803     -1.35948262
C       2.25793244     -0.54815374     -0.49447826
C       2.99677543      0.76163843     -0.30560391
H      -3.06515855      1.39306267      1.35894370
H      -2.84665705     -0.14000177      2.23440830
H      -4.11771482      0.01553097      1.01661219
H      -2.42987637      0.25821241     -0.78395239
H      -2.21405991     -1.27196592      0.09173216
H       2.20579804     -1.11344916      0.44103580
H       2.78215291     -1.16402993     -1.23215174
H       3.04867613      1.32663707     -1.24244079
H       4.02072595      0.57139744      0.03130391
H       2.51079293      1.39662718      0.44183892
