10
N#CN=C(N)N
N       3.05623446      0.28350965     -0.10156710
C       2.05519978     -0.30049904     -0.07050178
N       0.88018751     -0.93485094     -0.02527825
C      -0.19183927     -0.22579793     -0.09619745
N      -0.34999160      1.11632092     -0.21969504
N      -1.41179625     -0.81605663     -0.06203973
H      -1.13585029      1.47329361      0.31380256
H       0.48171894      1.67517436     -0.05043904
H      -2.04715500     -0.44526084     -0.75979982
H      -1.33670829     -1.82583316     -0.14840232
