9
S=c1[nH]sc(=S)[nH]1
S      -1.98747755     -1.68083735      0.02040098
C      -0.83610876     -0.49469056     -0.00825208
N      -1.10785476      0.84641786     -0.12996217
S       0.29759850      1.79883114     -0.12566989
C       1.31771952      0.37319459      0.04521741
S       2.96758587      0.32913813      0.14235505
N       0.51055667     -0.72818236      0.08668930
H      -2.04734220      1.21638742     -0.21260871
H       0.88532271     -1.66025888      0.18183011
