27
COC(=O)/C(C)=C/OP(=S)(OC)OC
C       4.33093944      0.72934832      2.15393787
O       3.57798817      0.37335025      0.99385573
C       2.23381464      0.43740812      1.16705448
O       1.66601648      0.75809959      2.20075689
C       1.53542114      0.05408599     -0.08935977
C       2.33867947     -0.39591325     -1.26908461
C       0.19673310      0.13831131     -0.07541195
O      -0.59373515     -0.18421140     -1.15138859
P      -2.21662398     -0.09484275     -1.18766462
S      -3.03642201     -0.55470479     -2.88086292
O      -2.64549387     -0.98072121      0.09957107
C      -2.42848047     -2.37755874      0.05404460
O      -2.47622590      1.40947213     -0.64605448
C      -3.80543592      1.79966926     -0.36498364
H       4.12145521      1.76345749      2.44506597
H       4.11381844      0.04215507      2.97772389
H       5.39292593      0.64791808      1.90642612
H       2.93857366     -1.27541144     -1.01254219
H       1.70883357     -0.67033798     -2.12148313
H       3.01021395      0.40153851     -1.60411602
H      -0.38203174      0.46894906      0.78104844
H      -1.44224194     -2.60910838     -0.35697512
H      -3.20457393     -2.85465431     -0.54963905
H      -2.48491604     -2.77172156      1.07189411
H      -4.30925944      1.05102876      0.25198310
H      -3.78193169      2.74541064      0.18250354
H      -4.35804111      1.94898323     -1.29588995
