31
CCNc1nc(Cl)nc(NCC(=O)OCC)n1
C       5.64141566     -1.25158715     -0.78052275
C       4.19616099     -0.81178883     -0.60711185
N       4.15415845      0.39792828      0.19327434
C       2.89284167      0.94420707      0.38629009
N       2.85443431      2.25701616      0.50733588
C       1.63514183      2.72926676      0.71337495
Cl      1.50726865      4.42763004      0.86550958
N       0.49733353      2.05655772      0.78508974
C       0.65252267      0.75286581      0.65028301
N      -0.44458600     -0.08439162      0.72638611
C      -1.70487032      0.47981097      0.24907590
C      -2.70126174     -0.63238290     -0.05601533
O      -2.40414298     -1.81086357     -0.21813967
O      -3.95953948     -0.11876972     -0.17034721
C      -4.96650902     -1.09339426     -0.46930363
C      -6.30388825     -0.38340651     -0.54861411
N       1.82014681      0.16016012      0.43776587
H       6.11149467     -1.44618838      0.18935667
H       5.69234927     -2.16798508     -1.37655169
H       6.22918854     -0.47963405     -1.28861244
H       3.64118856     -1.62162350     -0.11880143
H       3.75365449     -0.63623876     -1.59512217
H       4.76407123      1.15060825     -0.10811876
H      -0.20277906     -0.98888227      0.32794276
H      -1.56465470      1.04364365     -0.68106996
H      -2.12924146      1.12916551      1.02261601
H      -4.99574105     -1.85026070      0.32254219
H      -4.74394129     -1.57137050     -1.42984673
H      -6.28379855      0.39127745     -1.32228380
H      -6.53090280      0.11791254      0.39808868
H      -7.10751462     -1.08928252     -0.77620615
