45
N#CCCN1C(=O)c2ccccc2C1C(=O)NCc1ccc(OC(F)(F)F)cc1
N       0.10064210      2.32338340      4.33467183
C      -0.55429743      2.24297639      3.38034766
C      -1.36600761      2.14045642      2.16392327
C      -0.99175539      0.88486756      1.37888752
N      -1.74099383      0.75711570      0.13422408
C      -3.07431024      0.38362504      0.09271091
O      -3.74614194     -0.05933360      1.00265395
C      -3.55592070      0.66758086     -1.26327263
C      -4.81238516      0.45424037     -1.79721262
C      -5.01847144      0.83886654     -3.12255926
C      -3.97828946      1.42411273     -3.86879372
C      -2.71545045      1.63443748     -3.30335095
C      -2.51464033      1.24666470     -1.98879010
C      -1.28513265      1.35203200     -1.13327350
C      -0.08864308      0.59772829     -1.74620770
O       0.65730498      1.12155831     -2.57130804
N       0.01169703     -0.72659441     -1.36955962
C       1.17162193     -1.52546162     -1.68403508
C       2.15949315     -1.46754581     -0.54724828
C       3.10672296     -0.43921711     -0.48499050
C       3.99201525     -0.35911247      0.59210244
C       3.94699665     -1.29740245      1.62706252
O       4.86998683     -1.09452085      2.61245904
C       4.91179091     -2.02390126      3.68126796
F       5.89190676     -1.65789284      4.53687243
F       3.74511598     -2.04121290      4.36010669
F       5.19030150     -3.26767190      3.23380295
C       2.99893027     -2.31965496      1.57344504
C       2.10848565     -2.40102192      0.49596815
H      -1.21269152      3.02979123      1.54156287
H      -2.42987788      2.12069390      2.42649321
H      -1.21159174     -0.00183473      1.98655191
H       0.07861055      0.86361835      1.14465004
H      -5.60421693      0.00819818     -1.20466153
H      -5.99207503      0.68781207     -3.58421127
H      -4.16056685      1.71674804     -4.90138769
H      -1.91745981      2.08343555     -3.88888798
H      -1.01832411      2.39742073     -0.94753919
H      -0.58742064     -1.03670931     -0.61302011
H       1.63639611     -1.18372655     -2.61568008
H       0.83216975     -2.55488798     -1.84382399
H       3.15649868      0.31004281     -1.27414425
H       4.72211459      0.44707602      0.62259956
H       2.91551849     -3.07381764      2.35100543
H       1.37234410     -3.20296236      0.48058862
