39
CCCc1c2c(cc3c(=O)cc(C(=O)O)oc13)CCCC2
C       0.80591341      3.71996692     -1.51510686
C       0.44799408      2.57247025     -0.58406450
C       0.42692665      1.23589324     -1.32903094
C       0.05714248      0.08340407     -0.41179523
C      -1.28304688     -0.37094666     -0.28551923
C      -1.57221903     -1.46780195      0.55981412
C      -0.54647324     -2.06361495      1.30720250
C       0.76189589     -1.59620261      1.20135438
C       1.83838924     -2.21898750      1.98795622
O       1.63766939     -3.15522863      2.74996760
C       3.18632806     -1.66187901      1.82014478
C       3.35904938     -0.63902998      0.97378382
C       4.73354490     -0.10391953      0.83357497
O       5.73132305     -0.50105343      1.40884884
O       4.79185700      0.92108934     -0.03524858
O       2.35055848     -0.05426180      0.22923988
C       1.06741075     -0.53625562      0.35263722
C      -2.97653200     -1.99763591      0.73865925
C      -3.93039076     -1.56950127     -0.37020824
C      -3.80340324     -0.07486027     -0.61235116
C      -2.39567980      0.26838479     -1.09534885
H       1.79663712      3.57211304     -1.95662690
H       0.81728431      4.66561275     -0.96418377
H       0.07668681      3.80846910     -2.32670921
H       1.17454813      2.53905880      0.23658704
H      -0.53000652      2.77059253     -0.12989002
H      -0.26160937      1.28477878     -2.18016666
H       1.40723300      1.04359629     -1.78405947
H      -0.76859450     -2.89382880      1.97633762
H       3.98452465     -2.11199814      2.39773427
H       5.73640918      1.18024688     -0.03772960
H      -3.35455591     -1.63620081      1.70339061
H      -2.95851989     -3.09342977      0.78047351
H      -3.70305109     -2.11533902     -1.29458780
H      -4.95903294     -1.82296082     -0.09063796
H      -4.02313249      0.46937498      0.31499925
H      -4.53734645      0.25212720     -1.35745255
H      -2.28643812     -0.06159285     -2.13615941
H      -2.29929375      1.35935038     -1.07582894
