48
CC12CCC3(O)C(CCC4=CC(=O)CCC43C)C1CCC2=O
C      -2.67005066      1.76051326      1.38066448
C      -2.56491279      0.78246888      0.20649002
C      -1.76528686      1.37942734     -0.95318617
C      -0.24678093      1.25920125     -0.78144182
C       0.22969406     -0.20379574     -0.59837658
O      -0.18523306     -0.88146103     -1.79690798
C      -0.52075330     -0.83074839      0.62330860
C       0.06463753     -0.31843922      1.95677250
C       1.55524584     -0.58283746      2.08225942
C       2.32805636     -0.00768935      0.92427833
C       3.44394367      0.70840435      1.15398661
C       4.34812717      1.12179665      0.05278705
O       5.34173969      1.79643577      0.30988254
C       4.05378722      0.61100739     -1.33501900
C       2.54715416      0.51813631     -1.53998989
C       1.82205079     -0.36405198     -0.47564560
C       2.23964381     -1.84112323     -0.73482464
C      -2.06058489     -0.61973855      0.62612478
C      -2.81438063     -1.58588254     -0.30414989
C      -4.22666233     -1.02666367     -0.37105480
C      -3.97574021      0.45456008     -0.28404603
O      -4.82582101      1.29382050     -0.55847946
H      -3.22373911      2.66220797      1.09280874
H      -1.69267687      2.09042733      1.73794745
H      -3.20958704      1.31452022      2.22385239
H      -2.02537272      2.43836383     -1.08278629
H      -2.05360329      0.90041296     -1.89878366
H       0.09183496      1.89025917      0.04702767
H       0.16934359      1.68080657     -1.70297599
H      -0.10816658     -1.84085046     -1.65980719
H      -0.36562232     -1.91815443      0.60242212
H      -0.10574253      0.75415000      2.07605018
H      -0.44508374     -0.80916211      2.79534978
H       1.90748135     -0.17238344      3.03672487
H       1.73235883     -1.66426810      2.12973213
H       3.79463136      0.95122164      2.15154882
H       4.55212425     -0.35257774     -1.47501468
H       4.47138385      1.31875991     -2.05982923
H       2.18242521      1.54976143     -1.49240740
H       2.33354399      0.15335384     -2.55189777
H       2.10073376     -2.11876061     -1.78574626
H       3.29520979     -2.01628850     -0.49602814
H       1.66180160     -2.54669344     -0.12950815
H      -2.43103704     -0.83980300      1.63904584
H      -2.39367509     -1.60802686     -1.31235531
H      -2.80692904     -2.61128291      0.07935492
H      -4.72604100     -1.29124226     -1.30549449
H      -4.82346981     -1.33809163      0.49085490
