46
CCCCCOC(=O)C(C)c1ccc2cc(OC)ccc2c1
C       6.84912651     -1.23519924     -0.04177872
C       6.42302128     -0.96942146      1.39382872
C       4.92147255     -1.14684115      1.62825235
C       4.06709717     -0.12369428      0.88133231
C       2.58788212     -0.27288154      1.22732008
O       1.82053190      0.73067714      0.54496060
C       1.40717419      0.40932053     -0.71592216
O       1.66545802     -0.63954944     -1.29303720
C       0.56855980      1.54152967     -1.29492596
C       0.63151172      1.53411475     -2.82418524
C      -0.86410772      1.49555864     -0.79403228
C      -1.39773417      2.58446960     -0.09473317
C      -2.71455144      2.55350056      0.37103436
C      -3.52962328      1.43348727      0.14954322
C      -4.85547993      1.38626121      0.61171910
C      -5.66296815      0.26691406      0.38891828
O      -6.92933246      0.36588900      0.89703396
C      -7.79120736     -0.74716633      0.69646304
C      -5.14124287     -0.82227853     -0.30495177
C      -3.82251320     -0.79081818     -0.77189698
C      -3.00533690      0.32880471     -0.55299844
C      -1.67924591      0.37286630     -1.01682473
H       7.93982712     -1.18871082     -0.12410710
H       6.52688543     -2.22835127     -0.37016326
H       6.43414199     -0.49142221     -0.72812122
H       6.96094990     -1.66376570      2.05034974
H       6.72934231      0.04230466      1.68404971
H       4.62150233     -2.16134040      1.33867899
H       4.73010929     -1.05608219      2.70470393
H       4.19789895     -0.23118296     -0.20106124
H       4.39354678      0.89487945      1.12496320
H       2.43490025     -0.11183071      2.30002574
H       2.21454561     -1.27837369      0.99897672
H       1.04261600      2.47886929     -0.97222899
H       0.07462600      2.37943890     -3.24327474
H       1.66948955      1.60799707     -3.16744608
H       0.21325959      0.61496948     -3.24963685
H      -0.79445052      3.46931848      0.09719831
H      -3.10156616      3.41455373      0.91184085
H      -5.27368387      2.23087935      1.15517731
H      -7.96660249     -0.92366718     -0.36991705
H      -8.75512104     -0.51075018      1.15735765
H      -7.39872668     -1.64394261      1.18720762
H      -5.72914695     -1.71229916     -0.50143793
H      -3.43647157     -1.65351635     -1.31100283
H      -1.27636373     -0.48346993     -1.55725182
