26
Cc1c(O)c(=O)ccn1-c1ccccc1
C      -0.62964753      1.31295992     -1.66340016
C      -1.27687621      0.47186340     -0.58493712
C      -2.62563596      0.41860018     -0.50663733
O      -3.47202099      1.13992867     -1.32921424
C      -3.26360159     -0.47075963      0.51095293
O      -4.48772029     -0.51901516      0.60138340
C      -2.38569013     -1.27869780      1.37551491
C      -1.06658055     -1.14221330      1.20746242
N      -0.46195086     -0.29554473      0.28227073
C       0.96405530     -0.21446820      0.26776195
C       1.73834869     -1.34569271     -0.03725180
C       3.13330680     -1.27686714     -0.03734499
C       3.77175491     -0.07846403      0.27591707
C       3.01792104      1.05027501      0.59168516
C       1.62287604      0.98174536      0.59030454
H      -1.34530066      1.65848047     -2.41674486
H      -0.16340226      2.20410007     -1.23289793
H       0.12865517      0.73743232     -2.20504409
H      -4.37494231      0.89396184     -1.03477438
H      -2.83824949     -1.93072310      2.10781165
H      -0.37624649     -1.69870180      1.83692557
H       1.25171039     -2.28330668     -0.29426212
H       3.72018467     -2.15769393     -0.28442959
H       4.85752523     -0.02455156      0.27619703
H       3.51464286      1.98362372      0.84372242
H       1.04688425      1.86372880      0.85902884
