53
CC(=O)OCCN(CCOC(C)=O)c1ccc(N=Nc2ccc([N+](=O)[O-])cc2C#N)cc1
C      -5.51636133      2.51886182      0.62095756
C      -5.00621808      1.80996525     -0.59565333
O      -5.71516612      1.22276214     -1.40177747
O      -3.65488573      1.92152226     -0.66808331
C      -3.03435513      1.26039919     -1.78702897
C      -2.91410730     -0.25868033     -1.57256371
N      -2.06148172     -0.59276153     -0.41372028
C      -2.53516820     -1.70456201      0.44354785
C      -3.44290192     -1.18819279      1.57120876
O      -4.76261208     -0.85030220      1.10280398
C      -5.59738085     -1.90635150      0.90612339
C      -6.92869379     -1.43482202      0.40808124
O      -5.30138648     -3.08055940      1.07810506
C      -0.68769304     -0.35193079     -0.43061971
C       0.04705436     -0.18100411     -1.61312139
C       1.42687518      0.07064311     -1.59452956
C       2.11786421      0.15798887     -0.38727810
N       3.49534992      0.43816504     -0.38044059
N       4.14047158     -0.59315710     -0.08735292
C       5.51154658     -0.28906049     -0.00871896
C       6.30921765     -0.41772930     -1.15695756
C       7.67983595     -0.14743728     -1.11275206
C       8.26399422      0.24924836      0.09629749
N       9.70436966      0.53397219      0.14999181
O      10.16757017      0.94191236      1.22330266
O      10.36576926      0.34800087     -0.87986623
C       7.48736635      0.37273044      1.25676719
C       6.11192924      0.09865412      1.20247836
C       5.32624970      0.21754838      2.39655564
N       4.71150284      0.31848462      3.37590554
C       1.40331459      0.01331675      0.80163059
C       0.02608060     -0.24019105      0.77539227
H      -6.60004607      2.38373098      0.68996992
H      -5.05808057      2.09506725      1.51886959
H      -5.30097854      3.58773000      0.54534270
H      -3.59862586      1.47200446     -2.70361045
H      -2.05070848      1.72204114     -1.91589934
H      -3.91799530     -0.66487144     -1.40949523
H      -2.54264053     -0.74763047     -2.47992186
H      -1.69321092     -2.24588597      0.89245435
H      -3.06149820     -2.43653196     -0.18022439
H      -3.02354192     -0.28175795      2.02093822
H      -3.51967823     -1.93318986      2.37247768
H      -6.86740198     -1.22291283     -0.66163875
H      -7.24220801     -0.54260320      0.95699672
H      -7.67562441     -2.21481351      0.58217977
H      -0.42952990     -0.26015309     -2.58513881
H       1.96257063      0.19338162     -2.53167659
H       5.85007139     -0.72910378     -2.09391926
H       8.27006538     -0.25110886     -2.02191429
H       7.93897495      0.67590347      2.20147425
H       1.91493090      0.10423180      1.75704690
H      -0.49279461     -0.32125908      1.72700363
