36
C=CC(C)CCCC(C)(C)OC(C)=O
C       3.68403504      0.05451813      1.64801264
C       3.45869927      0.28967919      0.34889392
C       2.56216938      1.38956344     -0.16860231
C       3.39321329      2.37366508     -0.99600370
C       1.40289759      0.83194700     -1.01728774
C       0.43138258     -0.04052511     -0.21040113
C      -0.74349993     -0.50615238     -1.08170070
C      -1.81477540     -1.33385389     -0.33078951
C      -1.21914037     -2.66843100      0.15021276
C      -3.00135600     -1.65648365     -1.25301492
O      -2.27275528     -0.67731284      0.88057124
C      -2.88692666      0.53364128      0.82755367
C      -3.24958720      0.97260785      2.21378425
O      -3.11598270      1.18843936     -0.17784973
H       3.22323153      0.65578140      2.42547648
H       4.34077510     -0.75154398      1.96047971
H       3.94665484     -0.34245027     -0.39121733
H       2.13391768      1.94611279      0.67563177
H       2.77288167      3.20622080     -1.34523906
H       3.83246071      1.88958178     -1.87574250
H       4.21030182      2.79611429     -0.40040013
H       1.79913160      0.25138185     -1.86080199
H       0.84459948      1.67249589     -1.44959415
H       0.06066891      0.53306308      0.64639269
H       0.96402157     -0.91156245      0.18385778
H      -0.35588026     -1.09454380     -1.92386395
H      -1.20937386      0.38151369     -1.52551476
H      -0.45327931     -2.51350601      0.91756764
H      -0.77942571     -3.23761814     -0.67533062
H      -1.99099786     -3.28858904      0.62180055
H      -3.80205396     -2.15753230     -0.69728126
H      -3.44021188     -0.75269021     -1.68642871
H      -2.69584733     -2.30260922     -2.08316390
H      -3.75668252      1.94060341      2.16673250
H      -2.34426744      1.08206942      2.81615716
H      -3.92899841      0.24640457      2.66710334
