19
CSC(=O)c1cccc2nnsc12
C       3.89923060      0.19453402     -0.78985472
S       2.34240044     -0.69284138     -1.01759144
C       1.30881707      0.25663527      0.04613257
O       1.74385007      1.20620798      0.68204155
C      -0.12253207     -0.12612614      0.11972475
C      -0.54662044     -1.46693928      0.03004641
C      -1.89379340     -1.80792386      0.11831542
C      -2.86015802     -0.81809347      0.30424768
C      -2.47202124      0.53355582      0.40670943
N      -3.33047464      1.61082207      0.59043822
N      -2.67975521      2.75753225      0.64237531
S      -1.03095730      2.57844546      0.47459795
C      -1.11153736      0.85775514      0.31706439
H       4.67380356     -0.27667657     -1.40087028
H       3.79807882      1.23691272     -1.10429196
H       4.21465028      0.15702741      0.25644123
H       0.17703185     -2.27094112     -0.09579616
H      -2.19735663     -2.85071147      0.04659789
H      -3.91265638     -1.07917485      0.37367176
