35
CCC(C)(C)C1CCC(=NO)C(=NO)C1
C      -2.85485767     -1.01436331      1.23744557
C      -2.57863884      0.41168947      0.77518889
C      -1.58081089      0.56106093     -0.41614749
C      -2.22092767     -0.07691663     -1.67218029
C      -1.43380852      2.07492405     -0.69294608
C      -0.18661035     -0.11477421     -0.12066661
C       0.49034194      0.40036581      1.18103268
C       1.78594869     -0.35147147      1.50939261
C       2.71065399     -0.26093797      0.32647339
N       3.90448541      0.24866161      0.28649951
O       4.31679332      0.69483627      1.54573724
C       2.07825694     -0.74194398     -0.94709918
N       2.50123159     -1.73510495     -1.66922783
O       3.63263983     -2.33164105     -1.10395412
C       0.81233437     -0.00692825     -1.30054742
H      -3.59770975     -1.00366858      2.04219148
H      -3.25583619     -1.63170302      0.42897886
H      -1.95576783     -1.49542009      1.63173030
H      -2.22817202      0.99476470      1.63533260
H      -3.54049662      0.86258296      0.49492408
H      -3.25867886      0.25299612     -1.79845191
H      -1.68866551      0.20375536     -2.58713379
H      -2.22322691     -1.17019337     -1.61141368
H      -1.01519235      2.60630303      0.16738365
H      -2.40890413      2.52832049     -0.90826343
H      -0.79379379      2.27328522     -1.55814996
H      -0.36999177     -1.18884769      0.02700084
H       0.71871257      1.46826372      1.08313262
H      -0.18177348      0.28879137      2.03700788
H       1.57386846     -1.40999695      1.69856499
H       2.23478443      0.06281841      2.41524861
H       5.23260465      0.98427892      1.37319550
H       3.89933720     -2.97393666     -1.78753846
H       1.07957857      1.03456657     -1.50730922
H       0.40229121     -0.44441682     -2.21543182
