27
O=c1[nH]c(CN2CCCC2)c(Cl)c(=O)[nH]1
O       2.76141186      1.01688424     -2.54966154
C       2.69001188      0.44670654     -1.46733474
N       1.62523340      0.59713684     -0.62948438
C       1.47454437     -0.05031667      0.58138334
C       0.19215123      0.27121036      1.32705464
N      -0.94343227      0.48921357      0.41516012
C      -1.44873027     -0.75782995     -0.17237648
C      -2.81095925     -0.35287742     -0.71581498
C      -3.23870553      0.84068982      0.13073422
C      -2.10006807      1.05609248      1.11561176
C       2.42778669     -0.89646208      1.00620020
Cl      2.35850157     -1.75283012      2.49735601
C       3.63062945     -1.10681325      0.14648811
O       4.53951493     -1.87554841      0.44681670
N       3.67077240     -0.38962296     -1.02015449
H       0.85658379      1.18381536     -0.94950656
H      -0.05830072     -0.49343668      2.07113575
H       0.37886115      1.20265034      1.87860319
H      -0.80201444     -1.13999600     -0.96827942
H      -1.57158223     -1.54287226      0.58487195
H      -2.73720460     -0.05373661     -1.76798866
H      -3.53003769     -1.17563726     -0.65011858
H      -4.18601658      0.65401091      0.64654089
H      -3.37201041      1.72070159     -0.50940409
H      -1.96249705      2.11738210      1.34532134
H      -2.31073060      0.52004392      2.05007312
H       4.46628702     -0.52855841     -1.62321091
