33
CC=CCC1(CC=CC)C(=O)NC(=O)NC1=O
C       4.25935958     -1.11789568      0.65997120
C       2.76977908     -1.14936911      0.55185150
C       2.08049522     -0.64965464     -0.48502951
C       0.57418190     -0.70453232     -0.60086488
C      -0.13878578      0.64049461     -0.32334808
C      -1.66148045      0.54466796     -0.63516210
C      -2.39874099     -0.57522076      0.05416850
C      -3.01348120     -1.57442863     -0.59751355
C      -3.74394777     -2.68718398      0.08265147
C       0.38691054      1.72461344     -1.25283270
O       0.81163720      1.50932663     -2.38643171
N       0.29216331      3.01095014     -0.79859114
C       0.26644075      3.35960510      0.51438867
O       0.58868910      4.48329881      0.88500780
N      -0.05885651      2.38424108      1.40227634
C       0.01381495      1.04423352      1.13609699
O       0.12303827      0.24849300      2.06688916
H       4.64872070     -2.13740771      0.73935052
H       4.72731051     -0.63982526     -0.20634449
H       4.55580413     -0.56497406      1.55650148
H       2.23779766     -1.60910360      1.38375935
H       2.61725265     -0.20093216     -1.32052323
H       0.19617408     -1.48290410      0.07491062
H       0.33810522     -1.05124222     -1.61595506
H      -2.16308422      1.48103732     -0.35373840
H      -1.80065067      0.45715854     -1.72214079
H      -2.42794110     -0.55258915      1.14336113
H      -2.99577170     -1.61042022     -1.68494879
H      -3.29319461     -3.64726473     -0.18651892
H      -4.79032307     -2.69590699     -0.23728961
H      -3.72074078     -2.59281345      1.17287914
H       0.65962733      3.71887948     -1.42067622
H       0.05969665      2.63666914      2.37456680
