27
COc1ccc(C(=O)CCC(=O)O)cc1
C      -4.91179700      0.73376133     -1.08197554
O      -3.96523947     -0.29348174     -1.35079517
C      -2.71062682     -0.13024505     -0.83414553
C      -1.81509958     -1.15765352     -1.14209345
C      -0.49513408     -1.12413673     -0.67999418
C      -0.05880534     -0.05257242      0.10391745
C       1.33693555      0.03843987      0.62542226
O       1.71385230      1.06260583      1.19968997
C       2.28461403     -1.12877274      0.41634976
C       3.56941492     -0.94620489      1.21765519
C       4.53794653     -0.02942787      0.51391225
O       5.52769246     -0.42804145     -0.08233847
O       4.21394096      1.27825697      0.59049358
C      -0.95544343      0.97968275      0.41008445
C      -2.27533042      0.94084057     -0.05559861
H      -5.85270171      0.45648741     -1.56696616
H      -4.58756731      1.69002124     -1.50567448
H      -5.10389784      0.82144938     -0.00753391
H      -2.15067457     -1.99336440     -1.75318778
H       0.16304621     -1.94265461     -0.95523587
H       2.50318541     -1.22237397     -0.65278007
H       1.78921484     -2.03923654      0.77119273
H       3.39405796     -0.57848795      2.23484095
H       4.06910027     -1.91708642      1.32330522
H       3.34700838      1.44510141      1.03789272
H      -0.63466940      1.82599328      1.01547719
H      -2.93302286      1.76286152      0.20808551
