55
CC12C=CC(=O)C=C1CCC1C3CC(O)C(O)(C(=O)CO)C3(C)CC(O)C12F
C      -3.25315820     -0.81886800     -2.08050121
C      -2.84560541     -0.55657493     -0.60532571
C      -3.51830597     -1.68182100      0.16807953
C      -4.47317174     -1.51842559      1.09355855
C      -4.95789543     -0.17175429      1.44795880
O      -5.82908438     -0.00589733      2.29215137
C      -4.34326862      0.97694320      0.74754011
C      -3.38879405      0.81352266     -0.18586006
C      -2.77468110      2.00508700     -0.87444537
C      -1.25578829      1.98861191     -0.73480525
C      -0.62452205      0.65384755     -1.18653540
C       0.92112679      0.70564871     -1.07438217
C       1.61271903     -0.27244022     -2.05805913
C       2.85509783     -0.81908973     -1.35125084
O       4.00741244     -0.66832483     -2.18741897
C       3.01984454      0.05073768     -0.09063111
O       3.71207361      1.24564810     -0.48887663
C       3.82013158     -0.70438083      0.98532238
O       3.62725379     -1.89682026      1.24706097
C       4.88693938      0.07731405      1.74336359
O       5.34796248     -0.64413078      2.87969476
C       1.54966159      0.39786573      0.31435951
C       1.52874650      1.62033825      1.25308863
C       0.81372830     -0.77624616      0.99420211
C      -0.71805391     -0.65700862      0.99411456
O      -1.20999572     -1.80555256      1.69091842
C      -1.26803823     -0.57007552     -0.46238871
F      -0.81867718     -1.69581573     -1.11855591
H      -2.90661465     -1.80259736     -2.42084770
H      -2.84628332     -0.08140249     -2.77804638
H      -4.34418474     -0.79906905     -2.20244787
H      -3.17030983     -2.69233309     -0.04367593
H      -4.91357833     -2.35133457      1.62722638
H      -4.72135735      1.94999861      1.04049473
H      -3.05377207      2.00711909     -1.93409330
H      -3.15757040      2.94518582     -0.45842249
H      -0.84088200      2.81128860     -1.33031171
H      -1.00897716      2.20812481      0.30587370
H      -0.83687233      0.55848243     -2.25965896
H       1.24157295      1.71123762     -1.38520794
H       1.86682683      0.25032925     -2.98806058
H       0.96586265     -1.10644319     -2.34436508
H       2.73006423     -1.88310878     -1.12370977
H       3.87746796     -1.26044716     -2.95222020
H       4.28303593      0.96936029     -1.24074382
H       5.73634077      0.25614614      1.07875693
H       4.48098312      1.02827209      2.09374773
H       5.23610583     -1.59188327      2.66455905
H       0.53279773      1.83397794      1.64485446
H       2.16690560      1.45044941      2.12658163
H       1.88413850      2.52716774      0.75254541
H       1.16247710     -0.88335096      2.03048958
H       1.07134232     -1.73010314      0.51635408
H      -1.03858791      0.21555184      1.57116415
H      -0.82058900     -1.81295705      2.58263398
