29
Cc1ccc(C(=O)c2csc(S(N)(=O)=O)c2)cc1
C      -4.73422411      1.30133937     -0.27187629
C      -3.50670417      0.53871874      0.13352374
C      -2.38012061      1.21627518      0.61755085
C      -1.24781846      0.50739395      1.02663477
C      -1.23415949     -0.88969341      0.94867938
C      -0.05801627     -1.68114460      1.38696895
O      -0.24943964     -2.67498489      2.08334737
C       1.28833875     -1.27262512      0.97272032
C       2.42025555     -1.76677512      1.59948552
S       3.87465912     -1.15616653      0.94303476
C       3.03294173     -0.23529842     -0.22074483
S       4.02145077      0.71647539     -1.33836941
N       5.15346646      1.58752244     -0.45536236
O       3.12662762      1.69322575     -1.91463062
O       4.76240504     -0.22782560     -2.13952203
C       1.66522061     -0.39635205     -0.10207209
C      -2.37015808     -1.57386010      0.50347431
C      -3.49984273     -0.86136794      0.09599620
H      -4.46769780      2.28417522     -0.67461245
H      -5.28415340      0.76825500     -1.05456356
H      -5.39152088      1.43879756      0.59216042
H      -2.38202232      2.30256512      0.68560438
H      -0.39549428      1.05553015      1.42003220
H       2.45533748     -2.46511919      2.42696958
H       6.08016726      1.18939280     -0.61624175
H       5.10229933      2.57122760     -0.72314595
H       0.97491920      0.09873174     -0.77655006
H      -2.37966784     -2.66174282      0.47578699
H      -4.37704884     -1.40667022     -0.24668627
