35
CN=C(NC)N1Cc2cccc3cccc(c23)C1
C      -4.30610317      1.40351516     -1.11410857
N      -2.87416085      1.36134151     -0.87985519
C      -2.32081818      0.26830676     -0.47612753
N      -2.97076530     -0.91442777     -0.22213127
C      -2.63280982     -1.72905371      0.93204730
N      -0.95936720      0.21126719     -0.25870310
C      -0.18232722     -0.65414886     -1.15787514
C       1.20266119     -0.90212149     -0.60570813
C       1.90781401     -2.06228268     -0.95726648
C       3.19718405     -2.27501562     -0.47488962
C       3.79850930     -1.32637350      0.35249266
C       3.11882770     -0.15056198      0.70552552
C       3.71213161      0.82144576      1.52549676
C       3.02529233      1.99006859      1.85506048
C       1.73537707      2.20009533      1.37299639
C       1.11532507      1.23622059      0.56468748
C       1.80801639      0.06247762      0.21883689
C      -0.27362591      1.48133057      0.01793484
H      -4.57884179      2.39897946     -1.47836403
H      -4.61153232      0.68259076     -1.87951640
H      -4.86879242      1.22869175     -0.19132553
H      -3.97310692     -0.83941572     -0.33075405
H      -1.61297042     -2.11951125      0.87519145
H      -3.31122007     -2.58633562      0.98147023
H      -2.74481271     -1.15250498      1.85569372
H      -0.68539492     -1.61886194     -1.29229738
H      -0.09515091     -0.18677027     -2.14723549
H       1.45271039     -2.80610646     -1.60729025
H       3.73733617     -3.17860389     -0.74540122
H       4.80672782     -1.50899033      0.71715269
H       4.71889036      0.67630906      1.91034663
H       3.49817338      2.73764545      2.48662990
H       1.21131031      3.11730764      1.63256230
H      -0.84667576      2.04440067      0.76559362
H      -0.19781124      2.08909219     -0.89274572
