28
CCc1nc2[nH]c(=O)[nH]c(=O)c2nc1CC
C      -2.34855107      1.55680617     -1.76354614
C      -1.61208378      0.22790971     -1.83786764
C      -0.53631115      0.12961413     -0.78789134
N       0.68354015      0.61849413     -1.15843592
C       1.65990138      0.55872874     -0.23097804
N       2.90972096      1.04687034     -0.58690334
C       3.97671799      1.04347483      0.25511984
O       5.07111466      1.48046048     -0.08300293
N       3.76217457      0.52516879      1.50139513
C       2.57439223      0.01091099      1.97755536
O       2.48835837     -0.43201731      3.11742440
C       1.43647038      0.03335680      1.03034983
N       0.23382618     -0.45307191      1.42286321
C      -0.76168705     -0.39417024      0.49779593
C      -2.08590312     -0.95685069      0.94278030
C      -2.18604972     -2.44773897      0.65794049
H      -1.66145173      2.39818853     -1.90479972
H      -3.11330444      1.60949385     -2.54487720
H      -2.84275741      1.68858313     -0.79550081
H      -2.31739028     -0.60530345     -1.76005842
H      -1.14774455      0.13317346     -2.82748334
H       3.02459585      1.42073272     -1.51823118
H       4.54869684      0.51782365      2.13447337
H      -2.91898833     -0.42165073      0.47663901
H      -2.19363888     -0.79267861      2.02231420
H      -2.09975184     -2.65875640     -0.41292286
H      -3.14985237     -2.83479889      1.00344198
H      -1.39404387     -3.00275323      1.17240584
