38
CCC(CC)CC1(CCO)C(=O)NC(=S)NC1=O
C       2.67143048      2.18128066     -0.84167531
C       1.72451383      1.01625773     -1.09813072
C       1.38804616      0.19917093      0.16966886
C       2.64702398     -0.41047209      0.83491297
C       3.45042832     -1.35837425     -0.04589751
C       0.34512917     -0.91510956     -0.13375295
C      -1.16344617     -0.56528909      0.07648468
C      -1.99361201     -1.83872327     -0.27099495
C      -3.48582082     -1.74064235      0.05151310
O      -4.05964365     -0.57253380     -0.51111413
C      -1.37805863     -0.23785362      1.54340112
O      -1.31093050     -1.08643512      2.43222623
N      -1.60082446      1.07245037      1.86535401
C      -1.77585152      2.09293246      0.98692529
S      -2.07059460      3.64171213      1.51286188
N      -1.70368402      1.80110928     -0.33672580
C      -1.55800910      0.55074102     -0.87264974
O      -1.71006788      0.37730031     -2.08264432
H       2.29056229      2.82899876     -0.04581503
H       3.67107333      1.83616025     -0.56316777
H       2.77457640      2.78577088     -1.74876901
H       2.15232966      0.36851431     -1.87183990
H       0.80937546      1.43176828     -1.52768621
H       0.96960512      0.89023761      0.90928977
H       3.30687856      0.39228495      1.18376546
H       2.34095006     -0.95103712      1.73992993
H       2.83743883     -2.18660110     -0.41280751
H       4.27877509     -1.78626609      0.52838878
H       3.88231504     -0.83896739     -0.90598638
H       0.49428823     -1.27005042     -1.16289363
H       0.56521175     -1.77810712      0.51040236
H      -1.59265467     -2.71198042      0.25978517
H      -1.88880052     -2.05467035     -1.34257815
H      -3.65563405     -1.71259681      1.13182968
H      -4.01793073     -2.61423292     -0.33926108
H      -3.98176280     -0.64568661     -1.48240297
H      -1.71251581      1.27289160      2.85128247
H      -1.94010984      2.53604796     -0.99122866
