18
N[C@@H](CS/C(Cl)=C/Cl)C(=O)O
N      -1.33695458     -0.60142456      1.07091764
C      -0.92433628      0.26937534     -0.07956715
C      -0.18452964     -0.48909665     -1.19110594
S       1.29424649     -1.38685100     -0.59601845
C       2.35832246     -0.09369148     -0.12780466
Cl      2.60081552      1.22024787     -1.22909639
C       3.00622979     -0.16447841      1.04107089
Cl      4.10280280      1.00170157      1.65821273
C      -2.18783853      0.92024727     -0.66164714
O      -2.26990716      1.45333005     -1.75577710
O      -3.22422684      0.84736279      0.21503679
H      -0.47824796     -0.89149338      1.55072656
H      -1.69547735     -1.48381376      0.68541550
H      -0.31374340      1.08674730      0.32034926
H       0.08839225      0.18120551     -2.01277933
H      -0.85251577     -1.24076113     -1.62945378
H       2.89860389     -0.98903850      1.73481932
H      -2.88163568      0.36043115      1.00670125
