45
CCC#CCCOC(=O)C(C)c1ccc2cc(OC)ccc2c1
C       2.78244116     -2.29705507      1.58577383
C       4.17707467     -2.32542974      0.97056753
C       4.27942557     -1.38387485     -0.15566452
C       4.35443728     -0.60997608     -1.07533158
C       4.44021793      0.35017453     -2.19306679
C       3.05473204      0.76704547     -2.68908976
O       2.40263736      1.54061680     -1.66912802
C       1.22696458      2.11551560     -2.04841580
O       0.75946048      2.07538346     -3.18074113
C       0.56789369      2.78150202     -0.84821047
C      -0.21916240      4.02372525     -1.28086847
C      -0.28545656      1.79051204     -0.07307476
C       0.08465717      1.41174736      1.22350644
C      -0.67998980      0.48761443      1.94208624
C      -1.83369568     -0.08079900      1.38214346
C      -2.61798010     -1.00730699      2.09185657
C      -3.76770217     -1.56952048      1.52681591
O      -4.43270368     -2.45013971      2.33711752
C      -5.59371066     -3.07725089      1.79006189
C      -4.14031737     -1.20461628      0.23438899
C      -3.36873685     -0.28435342     -0.48574514
C      -2.21553166      0.28663101      0.07450718
C      -1.43542554      1.21417680     -0.63855892
H       2.70645328     -3.03072852      2.40056776
H       2.55138908     -1.30819820      1.99729649
H       2.01476075     -2.53278661      0.83532151
H       4.92357050     -2.07437536      1.73587499
H       4.40087273     -3.34067361      0.62278634
H       5.00192017     -0.10747591     -3.01628653
H       4.99484821      1.23701122     -1.86365334
H       3.16828807      1.37760775     -3.59178164
H       2.44138879     -0.11362164     -2.91825410
H       1.37923503      3.14772104     -0.19972993
H       0.43843248      4.73830014     -1.79224996
H      -0.65672543      4.53016741     -0.41273421
H      -1.03519156      3.78105412     -1.97447791
H       0.97661036      1.82771163      1.68748349
H      -0.36483447      0.21340878      2.94672493
H      -2.33649837     -1.29953328      3.10188844
H      -5.99491944     -3.75924074      2.54595547
H      -5.34464464     -3.67648606      0.90446800
H      -6.37248006     -2.33507494      1.56228122
H      -5.02543545     -1.61205714     -0.24564882
H      -3.68027148     -0.01491534     -1.49317289
H      -1.72629802      1.48453010     -1.65358948
