23
Clc1cccc(Cl)c1Oc1ccccc1
Cl     -1.04179550      0.15615685      2.99254337
C      -1.78995068      0.09278586      1.43756325
C      -3.01913050      0.73618512      1.26876015
C      -3.66407697      0.69874360      0.03230815
C      -3.08515509      0.00867190     -1.03334950
C      -1.85582371     -0.63638900     -0.86785905
Cl     -1.21121401     -1.51052502     -2.21055748
C      -1.19022229     -0.57595249      0.36316935
O       0.00131301     -1.23479927      0.55338185
C       1.15809906     -0.61615405      0.12463010
C       1.29009970      0.74598769     -0.15999996
C       2.52311454      1.25587184     -0.57564735
C       3.62545026      0.41128016     -0.70179574
C       3.49954061     -0.94516921     -0.40889948
C       2.26920721     -1.45593436      0.00666779
H      -3.48143573      1.26378245      2.10001195
H      -4.62224417      1.19696490     -0.09775324
H      -3.60099773     -0.03110886     -1.99021351
H       0.45639844      1.43306457     -0.05964088
H       2.62402019      2.31518039     -0.79779629
H       4.58313804      0.81118244     -1.02488267
H       4.35755236     -1.60542507     -0.50286183
H       2.17411295     -2.51440043      0.23514462
