33
CCCCOCc1ccc(O)c(OC)c1
C      -3.62805510      1.11140657      1.31936593
C      -3.50964638      0.13856430      0.15469476
C      -2.91353339      0.77535158     -1.10465546
C      -1.43095489      1.13500171     -0.97096947
O      -0.61133465      0.34144691     -1.83355476
C      -0.37929337     -0.98841228     -1.36717913
C       0.62688446     -1.02864099     -0.24158364
C       0.37068107     -1.78636619      0.91121385
C       1.30550659     -1.83459611      1.94397314
C       2.49515716     -1.12950152      1.81792462
O       3.39581160     -1.19309919      2.84692883
C       2.78242462     -0.37097551      0.67803899
O       3.99551827      0.26842709      0.69728127
C       4.30853186      1.06726320     -0.43834453
C       1.84364562     -0.32845374     -0.35273088
H      -4.11505004      0.62169306      2.16879430
H      -4.22991844      1.98276412      1.04225946
H      -2.64851738      1.46317124      1.65510917
H      -4.51287328     -0.23294424     -0.08628385
H      -2.91671848     -0.72893761      0.46299855
H      -3.48160375      1.68723707     -1.32749021
H      -3.06499601      0.09666563     -1.95239188
H      -1.06293335      1.09088731      0.05849733
H      -1.29667361      2.16933634     -1.30678533
H       0.03106288     -1.56059524     -2.20714405
H      -1.32343278     -1.46883571     -1.09158279
H      -0.55856552     -2.34216250      1.01366291
H       1.11119402     -2.41691406      2.83955308
H       4.14557365     -0.63872994      2.55513314
H       4.37174728      0.45639001     -1.34490282
H       3.58803720      1.88312714     -0.55831464
H       5.29272541      1.51491522     -0.26982343
H       2.01959875      0.24551633     -1.25789834
