40
COc1cc(NC(C)CCCN)c2ncccc2c1
C      -4.20150194      2.84780194      1.04203609
O      -2.84723152      2.56655581      0.71236038
C      -2.49020054      1.25010753      0.61426558
C      -1.14426262      1.03046052      0.32242573
C      -0.63477909     -0.26890955      0.18412595
N       0.74590507     -0.49032626     -0.08407564
C       1.31351942      0.18693655     -1.25633092
C       0.83036043     -0.48723902     -2.54343041
C       2.84933837      0.10882428     -1.17026906
C       3.40881914      0.90361985      0.01612955
C       4.93553885      0.84683951      0.04370335
N       5.46855736      1.60017825      1.17430969
C      -1.47587044     -1.38241306      0.36911417
N      -0.97289952     -2.63384905      0.24285605
C      -1.80773903     -3.68022910      0.41927024
C      -3.15018260     -3.55188517      0.71435055
C      -3.67013447     -2.26962948      0.83705090
C      -2.83696988     -1.15500877      0.66490388
C      -3.33540744      0.15615054      0.78107406
H      -4.88061338      2.47893443      0.26633643
H      -4.31426860      3.93501141      1.09357514
H      -4.46222284      2.43889807      2.02382352
H      -0.48285383      1.88691011      0.22829148
H       0.86414820     -1.51036611     -0.13727521
H       1.03117275      1.24556189     -1.28452452
H       1.28008712     -0.01375642     -3.42252845
H      -0.25727418     -0.41209085     -2.64686133
H       1.09173460     -1.55129773     -2.55907744
H       3.16899400     -0.93834198     -1.08940174
H       3.28303840      0.50493420     -2.09730166
H       3.07735464      1.94715444     -0.05580903
H       3.01117858      0.50229547      0.95621473
H       5.27617775     -0.19162693      0.11696395
H       5.34728659      1.26101540     -0.88296277
H       5.12926231      2.56066316      1.13205036
H       5.09003566      1.21522820      2.04014592
H      -1.34942617     -4.65933239      0.31236526
H      -3.77616399     -4.42697136      0.84569025
H      -4.72497983     -2.14468709      1.06810057
H      -4.38752732      0.29387874      1.00831440
