18
BrCCc1ccccc1
Br      4.29365280      0.08932026     -0.33533238
C       2.38359752      0.38416263     -0.58033339
C       1.60175147     -0.43833332      0.43057089
C       0.11615393     -0.23347371      0.26883625
C      -0.53885322      0.79333297      0.96198640
C      -1.90957033      0.99591000      0.79472320
C      -2.63623230      0.17801561     -0.06844391
C      -1.99321546     -0.84279524     -0.76595462
C      -0.62259036     -1.04740366     -0.60041593
H       2.15436698      0.10061148     -1.61184119
H       2.21613406      1.45852241     -0.45924060
H       1.83526640     -1.50580208      0.32426202
H       1.89585146     -0.17395366      1.45474331
H       0.01393371      1.44153295      1.63847931
H      -2.41097817      1.79241076      1.33840606
H      -3.70370702      0.33609780     -0.19747467
H      -2.55986453     -1.48043403     -1.43955726
H      -0.13569694     -1.84772116     -1.15341348
