40
N=C1C=CC2=CC(S(=O)(=O)[O-])=CC(=O)C2=C1NNc1ccccc1C(F)(F)F.[Na+]
N       0.82443794     -2.20607841     -1.56030331
C      -0.37130995     -1.79970191     -1.25171771
C      -1.52453963     -2.56777200     -1.78126289
C      -2.77624398     -2.24223013     -1.44551163
C      -3.02710581     -1.12487518     -0.56068160
C      -4.28748574     -0.81772276     -0.20811067
C      -4.59021707      0.29701732      0.66602115
S      -6.27049236      0.68099326      1.12500565
O      -7.07389744     -0.36448923      0.49405553
O      -6.24292391      0.62509247      2.58502977
O      -6.47157650      2.01760372      0.56967972
C      -3.64119016      1.10258899      1.16401361
C      -2.22627376      0.86195482      0.82944546
O      -1.35013103      1.60906447      1.26298226
C      -1.91925868     -0.31535339     -0.05416491
C      -0.63150160     -0.58733468     -0.37017830
N       0.48558691      0.13142033      0.07172848
N       1.70195471      0.26016731     -0.55222126
C       2.89849818      0.45382582      0.18804715
C       2.93920511      0.12673631      1.55596597
C       4.11581120      0.23699700      2.29966503
C       5.28850648      0.65134854      1.68282479
C       5.28199017      0.94507595      0.32123225
C       4.09713137      0.84639703     -0.43990159
C       4.17407575      1.13655866     -1.91554786
F       5.05519956      2.13660265     -2.21289069
F       4.58319304      0.06187199     -2.64411153
F       2.98661729      1.53196589     -2.46079502
Na      0.00000000      0.00000000      0.00000000
H       1.46975985     -1.55007699     -1.08022580
H      -1.29819546     -3.40268089     -2.43285173
H      -3.61368380     -2.81623454     -1.83137170
H      -5.14069868     -1.39139614     -0.56515751
H      -3.87404875      1.93994117      1.81156092
H       0.19449936      0.95501677      0.62867421
H       1.66400178      0.83496603     -1.40410581
H       2.04032422     -0.22620690      2.05837327
H       4.11013944     -0.01289255      3.35743359
H       6.20773844      0.73227868      2.25685552
H       6.21210351      1.24956055     -0.15748283
