14
Nc1ccc(Cl)cc1Cl
N      -2.33393862     -0.11339373      0.28757895
C      -0.94918351     -0.05135042      0.05487693
C      -0.22393408     -1.24408999     -0.04673451
C       1.16967317     -1.22562670     -0.15473339
C       1.85183829     -0.01129296     -0.12398903
Cl      3.56722929      0.00638179     -0.25504600
C       1.15796746      1.18511353      0.02599046
C      -0.23376491      1.15931191      0.13386783
Cl     -1.06871135      2.66192671      0.33392540
H      -2.80043322     -0.90429441     -0.14425773
H      -2.80485230      0.77132114      0.10598156
H      -0.74032386     -2.20096948     -0.03720401
H       1.71442136     -2.16174758     -0.24791741
H       1.69401229      2.12871018      0.06766096
