48
CCOP(=O)(Cc1ccc(-c2nc3ccccc3s2)cc1)N1CCCC1=O
C      -5.95075899     -3.07525770     -1.85925308
C      -4.60889111     -2.46677304     -2.20907549
O      -4.33664572     -1.41204239     -1.30227929
P      -2.86780139     -0.73544667     -1.35441993
O      -2.42800850     -0.49524918     -2.77381610
C      -1.80360255     -1.90176250     -0.48217852
C      -0.42856403     -1.39430703     -0.11910726
C       0.53159022     -1.18443097     -1.11241964
C       1.79647392     -0.69022125     -0.77830028
C       2.13203398     -0.38043710      0.54962592
C       3.48164173      0.14157844      0.84149118
N       4.51579657     -0.01309187      0.03746126
C       5.64029337      0.59499751      0.56730957
C       6.92316001      0.61427178     -0.01683416
C       7.97339881      1.27140940      0.63223485
C       7.75976350      1.90848258      1.85075236
C       6.49638268      1.90382856      2.45003985
C       5.45010232      1.23894334      1.78936223
S       3.80849491      1.05887292      2.26293615
C       1.16095597     -0.59952893      1.53896929
C      -0.10450780     -1.09812347      1.20856401
N      -3.01483915      0.69074578     -0.47690000
C      -3.06882577      2.00500354     -1.04111464
C      -2.86274600      2.91576452      0.14977415
C      -3.48860838      2.13916699      1.29893663
C      -3.30059160      0.70505304      0.87194643
O      -3.41574079     -0.26413701      1.60417118
H      -5.94500341     -3.45771724     -0.83349411
H      -6.74357146     -2.32223149     -1.91479265
H      -6.19467301     -3.89574493     -2.53987873
H      -4.63158941     -2.06824590     -3.22823013
H      -3.82487659     -3.22761977     -2.14321447
H      -2.31833998     -2.25080494      0.41920676
H      -1.68428330     -2.79530079     -1.10692584
H       0.30680110     -1.39847620     -2.15627300
H       2.52825350     -0.53992213     -1.57209943
H       7.08464494      0.11581512     -0.96780578
H       8.96165513      1.28278153      0.17880644
H       8.58507065      2.41692289      2.34500535
H       6.33039678      2.40131642      3.40105720
H       1.36948757     -0.39735246      2.58722645
H      -0.83578308     -1.25071415      2.00157317
H      -4.05591755      2.14480804     -1.49291716
H      -2.29267782      2.13031418     -1.80001716
H      -1.78962190      3.04592255      0.33642247
H      -3.30322142      3.90669104      0.01139231
H      -4.55837518      2.34499856      1.39117511
H      -2.97833175      2.33725036      2.24468932
