13
O=C(O)Cn1cnnn1
O       1.24056353      1.11979390     -1.12913714
C       1.48958411      0.18015119     -0.39340926
O       2.76621259     -0.22751659     -0.22737879
C       0.51857689     -0.68153561      0.35597849
N      -0.78803663     -0.07957463      0.44955084
C      -1.65666665      0.24743845     -0.54284548
N      -2.77501567      0.66288555      0.00583022
N      -2.58177005      0.57901251      1.36438804
N      -1.37192527      0.11306369      1.64411673
H       3.30356258      0.39986261     -0.75914181
H       0.89030951     -0.84625871      1.37265770
H       0.40589688     -1.64046964     -0.15834583
H      -1.44129183      0.17314727     -1.59834017
