25
CON(C)C(=O)Nc1ccc(Br)cc1
C       3.06170891      1.48705554     -0.31367162
O       2.45838229      0.88597108      0.83378448
N       2.29204994     -0.50392134      0.56527570
C       3.27065869     -1.28640324      1.29365754
C       0.95927496     -0.94656924      0.58937406
O       0.67117290     -2.13395132      0.71043696
N       0.06189692      0.09146274      0.43778683
C      -1.33817321      0.04074225      0.35431895
C      -2.07102325     -1.14651856      0.29386559
C      -3.46742740     -1.11492840      0.20535878
C      -4.13357504      0.10701688      0.17454648
Br     -6.01899251      0.14880689      0.05462939
C      -3.41659050      1.29875018      0.23002687
C      -2.02171017      1.26333156      0.31832284
H       2.43131036      1.34540638     -1.19725281
H       3.16155432      2.55891662     -0.12329098
H       4.05747010      1.06772332     -0.48700688
H       3.21005498     -2.33476380      0.98800904
H       3.06183876     -1.21501290      2.36561078
H       4.27304642     -0.90271831      1.08649922
H       0.50719560      0.99702617      0.50182210
H      -1.58424365     -2.11699962      0.30973293
H      -4.01828726     -2.05077939      0.16065979
H      -3.92914349      2.25651759      0.20578167
H      -1.47844869      2.20383893      0.36121203
