17
C1=CC2CCC1C2
C       1.51015848     -0.33777551     -0.47888550
C       1.29569971      0.95425779     -0.18590670
C      -0.02331069      1.03190076      0.54862018
C      -1.14538211      0.72220122     -0.46415075
C      -0.89706777     -0.77379822     -0.80337953
C       0.33364506     -1.11861954      0.06097320
C       0.05180972     -0.29030073      1.31814840
H       2.33629769     -0.74540593     -1.04117039
H       1.91500237      1.79274156     -0.46562537
H      -0.15982878      1.92397993      1.16028397
H      -1.09715873      1.35438484     -1.35725940
H      -2.13313905      0.84351298     -0.00550924
H      -0.71910580     -0.92321558     -1.87371984
H      -1.76505969     -1.37403435     -0.50835611
H       0.52124537     -2.17921542      0.22984681
H      -0.88910215     -0.55845388      1.81196367
H       0.86529636     -0.32215993      2.05412660
