21
Cc1ncc([N+](=O)[O-])n1CCO
C       0.10135796      2.48508363      0.36672112
C      -0.68583888      1.30520303     -0.08156974
N      -1.68795652      1.35455858     -0.93999780
C      -2.13501153      0.06947730     -1.07882109
C      -1.39234586     -0.77701486     -0.29706703
N      -1.53696223     -2.18596857     -0.17198015
O      -0.62870840     -2.81270989      0.38519629
O      -2.56514023     -2.68050535     -0.64708765
N      -0.46953178      0.00629808      0.35433946
C       0.49921493     -0.38954257      1.36774808
C       1.80707842     -0.90715912      0.77401182
O       2.61460489      0.18546160      0.34542710
H      -0.25725723      3.39076339     -0.13329146
H       1.15996745      2.36887142      0.12206133
H      -0.00347917      2.63779242      1.44486465
H      -2.96163060     -0.17271595     -1.73538560
H       0.68669622      0.47755663      2.00959238
H       0.02358345     -1.14460098      2.00107666
H       2.36957816     -1.44940343      1.54047697
H       1.64417536     -1.56974620     -0.08093474
H       3.41760561     -0.19169916     -0.05714312
