15
O=C(O)c1ccc(Br)cc1
O      -2.66067193     -1.46671804      0.21518589
C      -2.11521405     -0.38269159      0.12449488
O      -2.82686664      0.75752695      0.09092948
C      -0.65263967     -0.15112021      0.04037682
C       0.19827966     -1.26443859      0.06564403
C       1.58309076     -1.09312823     -0.01115034
C       2.11554265      0.19145271     -0.11313994
Br      3.98849907      0.42421261     -0.21706756
C       1.27785896      1.30618001     -0.13912763
C      -0.10765115      1.13574709     -0.06235173
H      -3.75744238      0.45549888      0.15364828
H      -0.21458706     -2.26862631      0.14520989
H       2.23302997     -1.96431816      0.00938743
H       1.69069473      2.30876154     -0.21859664
H      -0.75192292      2.01166135     -0.08344286
