22
Clc1ccc(-c2cccc(Cl)c2)cc1
Cl      5.14545678      1.06212380     -0.39196180
C       3.46310311      0.70857299     -0.33475035
C       3.03229563     -0.54170468      0.09920459
C       1.66402878     -0.82787991      0.14435592
C       0.70978452      0.12954629     -0.24168559
C      -0.73013929     -0.17325108     -0.19275799
C      -1.25337109     -1.30817622     -0.83713166
C      -2.62003099     -1.59872360     -0.79385255
C      -3.48859562     -0.75711291     -0.10284830
C      -2.98586787      0.37035330      0.54075691
Cl     -4.05612830      1.41149610      1.39705913
C      -1.62176560      0.66362435      0.49889240
C       1.17100751      1.38480149     -0.67528614
C       2.53859782      1.67390637     -0.72266411
H       3.75106002     -1.29666679      0.40616112
H       1.34491140     -1.80689132      0.49759600
H      -0.59402559     -1.97303187     -1.39302839
H      -3.00446855     -2.47959508     -1.30210142
H      -4.55074802     -0.98393655     -0.07019033
H      -1.24941886      1.54378726      1.01862840
H       0.46307799      2.14845055     -0.99294230
H       2.87123624      2.65030751     -1.06450571
