24
O=C(O)CCC1CCCC1
O       3.73980527     -1.17143018      0.12169487
C       3.37150493     -0.08125391     -0.27916263
O       4.27019392      0.83976581     -0.68049850
C       1.95982266      0.42753468     -0.39529038
C       0.94141054     -0.63989121      0.00465791
C      -0.50243601     -0.17291036     -0.18395044
C      -1.51980618     -1.24622801      0.19732777
C      -2.82664536     -0.47381347      0.31607082
C      -2.43615505      0.93453292      0.76289473
C      -0.91057007      0.99324097      0.71533252
H       5.13516898      0.39581742     -0.55563715
H       1.86425275      1.30489347      0.25287819
H       1.79036248      0.72906552     -1.43484365
H       1.10557490     -1.54299559     -0.59744662
H       1.11061848     -0.93363165      1.04876792
H      -0.65959630      0.10982778     -1.23387353
H      -1.26639918     -1.70127780      1.16277100
H      -1.58257809     -2.04540724     -0.54760575
H      -3.51919507     -0.95088041      1.01634242
H      -3.32485854     -0.42568450     -0.65946087
H      -2.80188802      1.15170118      1.77198853
H      -2.87569130      1.67819594      0.08875132
H      -0.50659579      0.86414206      1.72701980
H      -0.55629995      1.95668660      0.33564722
