26
CCCc1ncnc2c(O)cccc12
C       3.89950257      0.23836777     -0.33691849
C       2.52024488      0.01628018      0.26318437
C       1.60743818     -0.74122101     -0.70212615
C       0.24024239     -0.98212469     -0.10717990
N       0.08733067     -2.18485321      0.49410137
C      -1.10564508     -2.43291999      1.04507479
N      -2.15630837     -1.60435584      1.06086310
C      -1.98249049     -0.41230615      0.46548085
C      -3.04682894      0.48706693      0.46037103
O      -4.23330743      0.12988829      1.05773756
C      -2.97258997      1.74682003     -0.12469156
C      -1.78876548      2.13812023     -0.73423683
C      -0.70078090      1.26373339     -0.74964565
C      -0.78507932     -0.02205739     -0.15111581
H       4.38382622     -0.71497912     -0.57112846
H       3.83606697      0.82768556     -1.25725255
H       4.53754332      0.77886244      0.36925427
H       2.62180549     -0.54403704      1.20072936
H       2.08327424      0.98761835      0.52266364
H       2.06096498     -1.71239647     -0.94073507
H       1.52051816     -0.21544794     -1.65974278
H      -1.23193521     -3.39758821      1.52472850
H      -4.06806875     -0.77455440      1.39797575
H      -3.83206214      2.41022767     -0.10050214
H      -1.71100236      3.11935931     -1.19568965
H       0.21610636      1.59481131     -1.23119956
