69
CC(=O)[O-].CCN(CC)c1ccc([C+](c2ccccc2)c2ccc(N(CC)CC)cc2)cc1
C      -0.62511243     -0.02249482      0.13857671
C       0.85640095      0.03489707     -0.19118698
O       1.33564218     -1.02931230     -0.67339226
O       1.41962955      1.13687596      0.05818713
C      -6.95814379      0.47038864     -0.23419003
C      -5.97345701      1.47771675     -0.80841712
N      -4.85225019      1.71980934      0.11013605
C      -5.00941338      2.83675175      1.05321377
C      -5.29782762      2.34931217      2.46655968
C      -3.68933257      0.95430906      0.06088081
C      -3.58277820     -0.20450038     -0.72783996
C      -2.41096651     -0.97671451     -0.78687922
C      -1.28400517     -0.61865272     -0.04873914
C      -0.02620960     -1.43591722     -0.10906174
C      -0.10017345     -2.93540686     -0.06231077
C      -0.93039547     -3.58009114      0.86546109
C      -0.99903960     -4.97449885      0.90826246
C      -0.23836296     -5.73807720      0.02500247
C       0.59081958     -5.10914150     -0.90183839
C       0.65998387     -3.71475961     -0.94565131
C       1.30682750     -0.75421906     -0.21434279
C       2.38647669     -1.16365619      0.56626702
C       3.62972498     -0.51793624      0.46583445
C       3.85731124      0.55877658     -0.40876880
N       5.09076113      1.19556510     -0.50171933
C       5.28677021      2.40292118     -1.31439157
C       5.64420902      2.04414960     -2.74963633
C       6.27895086      0.70293744      0.20711649
C       6.36411018      1.29366080      1.60723463
C       2.74985263      0.94703852     -1.18251898
C       1.50159396      0.30975199     -1.09352424
C      -1.36053308      0.52290870      0.74723878
C      -2.53788305      1.28682577      0.79545273
H      -1.16893852     -0.56537949     -0.64048845
H      -0.76664335     -0.53719122      1.09336102
H      -1.05097837      0.98260479      0.21494282
H      -6.47763645     -0.48533906     -0.00518120
H      -7.41296909      0.84473085      0.68782055
H      -7.76369094      0.28227647     -0.95089020
H      -5.62385431      1.15703199     -1.79654880
H      -6.50964343      2.41527148     -1.00145024
H      -4.13349432      3.49504852      1.03711342
H      -5.84394665      3.47883034      0.74469656
H      -6.22525048      1.76998409      2.50306510
H      -4.49804983      1.71392330      2.85695873
H      -5.40916811      3.20329199      3.14215945
H      -4.41974375     -0.55652599     -1.32226525
H      -2.39631050     -1.85820302     -1.42388337
H      -1.52677236     -2.99986285      1.56635171
H      -1.64632171     -5.46240894      1.63220390
H      -0.29203783     -6.82307481      0.05879093
H       1.18428086     -5.70210098     -1.59269172
H       1.30792812     -3.24055492     -1.67978782
H       2.27761738     -1.98427808      1.27177648
H       4.41637115     -0.88736747      1.11597832
H       6.10567232      3.00067817     -0.89417045
H       4.41394617      3.06443744     -1.28050056
H       6.55623809      1.43923944     -2.78894140
H       4.84742471      1.47345262     -3.23609386
H       5.81547835      2.95340539     -3.33434104
H       6.31066431     -0.39167339      0.24012229
H       7.18290836      0.99128546     -0.34481047
H       7.26467554      0.93395612      2.11484793
H       6.41000927      2.38716509      1.57069339
H       5.49836316      1.01871907      2.21733226
H       2.82328806      1.76045415     -1.89715370
H       0.68936949      0.65736277     -1.72812588
H      -0.50823514      0.83730707      1.34551721
H      -2.51373060      2.16428576      1.43361625
