31
C=CC(=O)OC1C=CC2C3CCC(C3)C12
C       4.88031506      0.94960989      1.55763124
C       4.08702785      0.57235140      0.54713306
C       2.76074052     -0.02608904      0.80769448
O       2.28180670     -0.22454917      1.91140453
O       2.18803169     -0.30316852     -0.38820664
C       0.88722239     -0.89237739     -0.29844092
C       0.54476916     -1.40698571     -1.66134301
C      -0.55353773     -0.84297252     -2.17189097
C      -1.13452243      0.18605739     -1.25773951
C      -2.50947111     -0.17708699     -0.65533635
C      -3.00685010      1.02843602      0.16429100
C      -2.08274664      1.01381137      1.39313216
C      -1.16969460     -0.19868047      1.12535421
C      -2.15130871     -1.16430778      0.45895468
C      -0.19373222      0.17295618     -0.02149274
H       4.57740618      0.82878639      2.59457087
H       5.85336700      1.38895622      1.36588708
H       4.38831687      0.69274883     -0.48629563
H       0.88399127     -1.71699735      0.42463973
H       1.12905780     -2.16753354     -2.16052908
H      -0.97161898     -1.08241045     -3.14050359
H      -1.14365377      1.16367040     -1.75230004
H      -3.23814157     -0.54116086     -1.38322157
H      -2.94203868      1.97074650     -0.38878728
H      -4.04811680      0.88587873      0.47492298
H      -2.67207427      0.86348379      2.30485184
H      -1.52363549      1.94870261      1.49971657
H      -0.67776794     -0.57562865      2.02444242
H      -1.69000954     -2.08975508      0.10353367
H      -3.00479374     -1.41707391      1.09789614
H       0.25166185      1.16058170      0.15010326
