30
CCC(C(=O)O)C(C(=O)O)c1ccccc1
C      -2.68595240      0.66892937     -1.75702148
C      -1.74961261      0.73137485     -0.55623641
C      -1.11431622     -0.62948723     -0.21053788
C      -2.19415925     -1.57247025      0.27474468
O      -2.64848029     -1.63098747      1.40538878
O      -2.65845129     -2.38004359     -0.69636241
C      -0.03557732     -0.50529355      0.89935435
C       0.44983324     -1.88082628      1.33707882
O       0.50537840     -2.88727762      0.64754717
O       0.86422812     -1.90869958      2.62021760
C       1.14932357      0.35913943      0.48871183
C       1.46120893      1.51265225      1.22469729
C       2.54184310      2.31739203      0.85997629
C       3.32530427      1.97826848     -0.24072279
C       3.03145726      0.83250304     -0.97638338
C       1.95143519      0.02570990     -0.61442501
H      -3.56665847      0.05429457     -1.54920731
H      -2.17394335      0.25903632     -2.63329667
H      -3.03760149      1.67437433     -2.01024324
H      -2.30552579      1.12002351      0.30602907
H      -0.96848841      1.46371292     -0.78794905
H      -0.66245645     -1.06674165     -1.11056021
H      -3.32031476     -2.94838411     -0.25004444
H      -0.52073962     -0.05800890      1.77945132
H       1.16191031     -2.83145085      2.75998954
H       0.86528094      1.79386220      2.09073747
H       2.77359815      3.20873142      1.43734631
H       4.16735485      2.60475762     -0.52283654
H       3.64596615      0.56418793     -1.83200829
H       1.74815525     -0.86927908     -1.20002782
