19
Oc1ccc2ccccc2c1
O      -3.40298476     -1.16363268     -0.31369099
C      -2.21073359     -0.53868066     -0.09324174
C      -2.14922079      0.70032479      0.53213398
C      -0.90609272      1.30302706      0.73710109
C       0.27768354      0.67152024      0.31895636
C       1.53469382      1.26504772      0.51811838
C       2.70111860      0.62427119      0.09667539
C       2.62644575     -0.61693714     -0.52874310
C       1.38515181     -1.22102678     -0.73456448
C       0.20218179     -0.59020193     -0.31683285
C      -1.05356407     -1.18429646     -0.51638828
H      -4.11590133     -0.60134879      0.03071618
H      -3.04749403      1.21004650      0.86495809
H      -0.86552279      2.27313660      1.22737513
H       1.61438836      2.23439894      1.00480457
H       3.66743566      1.09512554      0.25719942
H       3.53391214     -1.11673755     -0.85727456
H       1.34607088     -2.19119704     -1.22499017
H      -1.13756827     -2.15283956     -1.00231242
