17
Cc1cccc(C)n1
C       2.50491337     -0.81616120      0.03457718
C       1.17386689     -0.12678665      0.02149827
C       1.10648298      1.26202838      0.04888140
C      -0.14350241      1.87064910      0.03579764
C      -1.28610762      1.07949973     -0.00407400
C      -1.14086790     -0.30337578     -0.02973403
C      -2.35127375     -1.18663523     -0.07290382
N       0.06983794     -0.91038309     -0.01742433
H       3.05610549     -0.55692599      0.94382805
H       3.09276665     -0.51998077     -0.83975605
H       2.38108319     -1.90362551      0.00950576
H       2.00958142      1.86235070      0.07987819
H      -0.22655289      2.95326436      0.05651664
H      -2.27026583      1.53584504     -0.01484763
H      -2.93820308     -0.98007786     -0.97323752
H      -2.97485326     -1.01702309      0.81034733
H      -2.06301120     -2.24266214     -0.08885309
