29
CCCCCCCC[Sn](Cl)(Cl)Cl
C      -4.60922386     -0.62879279     -0.31987854
C      -3.54297224      0.00648559      0.55078967
C      -2.15236720     -0.42662231      0.11684827
C      -1.17813299      0.25384749      1.03658440
C       0.26658219     -0.07500287      0.73903342
C       0.61561529      0.35326051     -0.67335433
C       2.06223012      0.02060946     -0.95744242
C       3.02535373      0.69440896     -0.03930944
Sn      5.01110900      0.07813729     -0.62759298
Cl      6.15280277     -0.89269348      1.17541677
Cl      4.91466604     -1.44064783     -2.42506179
Cl      6.20660777      1.98749478     -1.37766532
H      -4.21157862     -0.99554358     -1.28350934
H      -5.14207001     -1.43093553      0.24451133
H      -5.38295617      0.17031201     -0.49875435
H      -3.74789497     -0.28705672      1.59700131
H      -3.56959980      1.10543930      0.46018250
H      -2.04536529     -1.53306090      0.22483936
H      -1.96618519     -0.17094841     -0.94333466
H      -1.38249109     -0.10484987      2.07202622
H      -1.35407780      1.34734854      1.03428356
H       0.88258980      0.45984550      1.47921691
H       0.38809815     -1.16835480      0.86143617
H       0.44242898      1.41817861     -0.83575352
H       0.01642132     -0.24311189     -1.39000149
H       2.29717017      0.31002252     -1.98695379
H       2.21274888     -1.08946925     -0.85467752
H       2.87080642      0.48080429      1.03003259
H       2.91968459      1.80089539     -0.15061305
