43
CCCCNc1ccc(C(=O)OCCN(C)C)cc1
C       7.65285437      1.43681306      0.43090550
C       6.15983157      1.26001455      0.20196134
C       5.83935185     -0.13529025     -0.33980084
C       4.34755618     -0.32730362     -0.62746646
N       3.58455603     -0.30800526      0.61610258
C       2.20828004     -0.55110990      0.59435179
C       1.40820502     -0.39368538     -0.54286319
C       0.01957334     -0.58043774     -0.48919848
C      -0.60296498     -0.90325773      0.72040039
C      -2.07185049     -1.11021546      0.83862896
O      -2.62739277     -1.40516904      1.88432401
O      -2.67789659     -0.91747873     -0.35870361
C      -4.10668828     -1.10433352     -0.37676996
C      -4.82289140      0.17447446      0.08721385
N      -6.29469656      0.10124092      0.01122145
C      -6.88798312      1.21549748      0.75621928
C      -6.77243905      0.12473933     -1.37257409
C       0.17862723     -1.02486716      1.87226432
C       1.56387477     -0.83620263      1.80699340
H       8.21085265      1.30985674     -0.50228356
H       7.86086740      2.43958341      0.81706023
H       8.02707003      0.70847315      1.15741476
H       5.81242239      2.02224432     -0.50510968
H       5.63339316      1.43045954      1.14780861
H       6.39559113     -0.29431995     -1.27180514
H       6.18349059     -0.89578579      0.37216770
H       4.00983233      0.46675208     -1.30324972
H       4.21029475     -1.29182083     -1.13099574
H       4.04076651     -0.81525371      1.37134426
H       1.84455137     -0.12024556     -1.49876984
H      -0.55841765     -0.46032553     -1.40186313
H      -4.39397997     -1.97170214      0.23010078
H      -4.36086460     -1.34052848     -1.41423045
H      -4.44130708      1.03573622     -0.47793575
H      -4.52326857      0.35474006      1.12778650
H      -6.59125475      1.17662220      1.81034688
H      -7.98184807      1.15159351      0.73967363
H      -6.59211773      2.18908368      0.34868899
H      -6.44286419      1.02197873     -1.90883846
H      -6.43166148     -0.75558958     -1.92581408
H      -7.86780027      0.09288152     -1.40089527
H      -0.28362549     -1.25714145      2.82972620
H       2.14197038     -0.91271551      2.72526444
