23
Clc1cc(Cl)c(Oc2c(Cl)ccc(Cl)c2Cl)cc1Cl
Cl      5.23876348     -0.70578992     -0.84954432
C       3.65076789     -0.22388535     -0.36992759
C       3.47007066      0.19241474      0.95070111
C       2.20539100      0.58928180      1.38886203
Cl      2.03249401      1.09732192      3.03038721
C       1.10897016      0.56219878      0.51521407
O      -0.10989971      0.98396711      1.01026762
C      -1.24992956      0.40249917      0.49709029
C      -1.61981482     -0.90321684      0.85217748
Cl     -0.66711425     -1.86990521      1.91896642
C      -2.80085185     -1.45518715      0.35317297
C      -3.62519695     -0.70203600     -0.48399483
C      -3.27743721      0.61033089     -0.81886018
Cl     -4.35799992      1.47801353     -1.85183436
C      -2.09291824      1.17286765     -0.32272629
Cl     -1.63963701      2.79962259     -0.72041911
C       1.29791794      0.16408043     -0.81372759
C       2.56513681     -0.23477546     -1.25357621
Cl      2.72035550     -0.72564248     -2.90312852
H       4.31271447      0.20812268      1.63801282
H      -3.09142197     -2.46944174      0.62014726
H      -4.54495617     -1.14192224     -0.86515532
H       0.47459573      0.17108111     -1.52210494
