7
C[Hg]C#N
C      -1.48152994      0.06239569     -0.13134431
Hg      0.59456130     -0.29705850     -0.18945308
C       2.63288260     -0.10376625     -0.41667731
N       3.77985412      0.01899712     -0.53361552
H      -1.70840930      0.92859668      0.55611794
H      -1.88126508      0.26538582     -1.15194972
H      -1.93609370     -0.87455055      0.26446941
