50
CC12CCC3C(CCC4C(C)(C)CCCC43C)(CO1)O2
C       5.19880523      0.14159693      0.47687978
C       3.75166956     -0.09843115      0.09225496
C       3.33073189     -1.56184460      0.26732634
C       1.88394682     -1.76033543     -0.20967478
C       0.97301173     -0.59951021      0.25884425
C       1.69018117      0.77820952      0.10775604
C       0.83404456      1.92656462      0.63679132
C      -0.60451309      1.91089619      0.12781389
C      -1.27986716      0.55298177      0.42057831
C      -2.84315239      0.55465532      0.27648993
C      -3.46449479      1.54548404      1.29750654
C      -3.35290714      0.99035186     -1.10934243
C      -3.39012421     -0.84941632      0.63754594
C      -2.69319293     -1.99909321     -0.07781983
C      -1.17934784     -1.96885674      0.12789010
C      -0.51178132     -0.62826876     -0.28709597
C      -0.54278488     -0.53773932     -1.83091261
C       2.33160906      1.06481101     -1.24926495
O       3.53245683      0.27553219     -1.27497729
O       2.88831245      0.70080429      0.91264611
H       5.37879610     -0.10967173      1.52716842
H       5.45686075      1.19884411      0.34734403
H       5.87978355     -0.43796694     -0.15474126
H       3.39574397     -1.84295834      1.32565352
H       3.98535108     -2.23061104     -0.30328181
H       1.51463976     -2.72142177      0.16434399
H       1.89596435     -1.83341611     -1.30112410
H       0.89295323     -0.75684096      1.34801134
H       1.29865461      2.89298165      0.40422006
H       0.81917033      1.88250064      1.73484466
H      -1.13479417      2.72377358      0.63334348
H      -0.62578205      2.15207294     -0.93875591
H      -1.11930216      0.38416627      1.49917901
H      -3.25624586      2.58802267      1.03722338
H      -4.55541018      1.43896364      1.33402830
H      -3.08477204      1.36695723      2.30971763
H      -4.44313953      1.11296151     -1.09821954
H      -3.14287602      0.26483048     -1.89366048
H      -2.92773079      1.95217212     -1.41283341
H      -3.28053718     -1.01238959      1.71877706
H      -4.46711498     -0.90131994      0.43223167
H      -3.08311648     -2.94760535      0.31154007
H      -2.94429495     -1.98980351     -1.14283976
H      -0.73852041     -2.80355722     -0.43073725
H      -0.97631873     -2.16573169      1.18905567
H      -1.49241247     -0.86497056     -2.25503354
H      -0.37136924      0.47306504     -2.20272352
H       0.20130924     -1.18942756     -2.29536889
H       2.64823612      2.11085687     -1.33228418
H       1.72367061      0.82713154     -2.12017564
