17
C[C@H](CC(=O)O)C(=O)O
C      -1.04962103     -1.39527598     -0.16149465
C      -0.66276899      0.01899892     -0.59601555
C       0.83634820      0.13887315     -0.90115343
C       1.71988503      0.01875406      0.31374378
O       1.39333850     -0.29163881      1.44553607
O       3.00955563      0.27670657      0.01958390
C      -1.08572560      1.08458414      0.39490031
O      -0.53515090      2.16092354      0.56671012
O      -2.22190703      0.79609634      1.05412849
H      -0.64887057     -2.14246499     -0.85435996
H      -0.69203377     -1.63099697      0.84539381
H      -2.13924761     -1.51094538     -0.15020317
H      -1.20614330      0.23742302     -1.52481080
H       1.13460551     -0.63429244     -1.61829621
H       1.03309009      1.11837653     -1.35455807
H       3.47283047      0.18650391      0.87876634
H      -2.35818460      1.56837440      1.64212902
