28
CCCCOC(=O)CCC(C)=O
C       4.81599542     -1.09752744      0.35864768
C       3.98487149     -0.04612534     -0.35627651
C       2.51980917     -0.46205302     -0.45549159
C       1.69127836      0.57472909     -1.20562955
O       0.32591079      0.13460014     -1.28077059
C      -0.48861199      0.53921418     -0.26772860
O      -0.15360224      1.24433276      0.67213494
C      -1.86686508     -0.03343662     -0.47018078
C      -2.82750794      0.46323777      0.60137264
C      -4.21893936     -0.10513519      0.42099393
C      -5.25880138      0.34688619      1.41307154
O      -4.50337410     -0.88400298     -0.48713626
H       4.44834605     -1.26947776      1.37395970
H       5.85837515     -0.77224573      0.42664939
H       4.79007003     -2.05009770     -0.18112064
H       4.39633940      0.11274489     -1.35871205
H       4.06499219      0.90419857      0.18288038
H       2.43296920     -1.42936147     -0.96899896
H       2.10047701     -0.61516571      0.54782467
H       2.05138648      0.66961979     -2.23437072
H       1.76834114      1.56639662     -0.74658132
H      -2.22440707      0.25455426     -1.46483385
H      -1.79460072     -1.12687007     -0.42736464
H      -2.46971101      0.16489957      1.59283914
H      -2.89597937      1.55664550      0.57863474
H      -4.88608771      0.20852012      2.43141837
H      -6.16627643     -0.25093117      1.29151914
H      -5.49439749      1.40185076      1.24225708
