45
CCN(CCO)C(=O)c1nc2ccccn2c1-c1cccc(C(F)(F)F)c1
C      -3.96459732      1.15539659     -1.49690490
C      -2.96348818      0.01305640     -1.57654438
N      -2.63892527     -0.53178241     -0.25634594
C      -3.55669832     -1.54143979      0.28921930
C      -3.11105456     -2.97817474     -0.01852813
O      -2.10172622     -3.44205214      0.87394840
C      -1.45228791     -0.27087980      0.44377046
O      -1.15256931     -0.97042057      1.41562516
C      -0.56699518      0.82152845      0.00097564
N      -1.00023440      1.94305061     -0.69044734
C       0.06078439      2.69720001     -0.86022161
C       0.21415506      3.95915677     -1.50170066
C       1.42911811      4.53723311     -1.56195862
C       2.60088013      3.89980520     -0.98452322
C       2.46059968      2.71164950     -0.37288629
N       1.19650697      2.11653671     -0.30621219
C       0.80081598      0.91617863      0.25932347
C       1.70702107     -0.00476702      0.93682708
C       2.20171274      0.29614421      2.21017733
C       3.07037129     -0.58501408      2.85425208
C       3.44601308     -1.77541537      2.23152115
C       2.94884471     -2.10251401      0.96074764
C       3.36971890     -3.38110264      0.28083941
F       4.54196296     -3.23578682     -0.39864440
F       3.56950446     -4.41049909      1.15002718
F       2.46577129     -3.83188214     -0.63267725
C       2.08266187     -1.20314170      0.31756469
H      -4.91976141      0.81378666     -1.08525447
H      -3.60488729      1.96597610     -0.85663322
H      -4.15415539      1.56285428     -2.49466530
H      -3.38210044     -0.79946481     -2.18268238
H      -2.05661467      0.33002408     -2.09735533
H      -4.55170756     -1.36307209     -0.13198830
H      -3.62102291     -1.39658416      1.37409002
H      -3.96301161     -3.65598939      0.09189746
H      -2.73314454     -3.06879823     -1.04164262
H      -1.59131270     -2.66243563      1.18387972
H      -0.66172754      4.43155833     -1.93139275
H       1.56154433      5.49962889     -2.04736171
H       3.56244785      4.39643854     -1.06044341
H       3.29243406      2.18303358      0.07511970
H       1.90248343      1.21222600      2.71484706
H       3.44649758     -0.34771520      3.84653201
H       4.12189942     -2.45691550      2.74673921
H       1.69427339     -1.44661532     -0.67090974
