22
C[Si](C)(C)CCN
C      -1.14390212     -1.22496127      1.39911572
Si     -0.84720045      0.16988528      0.18342421
C      -1.76906596      1.70410787      0.74889087
C      -1.44950514     -0.33045975     -1.52002664
C       1.01975317      0.57028610      0.10712986
C       1.90515466     -0.58864506     -0.34516355
N       3.30137873     -0.16984607     -0.33933442
H      -0.63705528     -2.13857593      1.07487491
H      -2.21298287     -1.44107985      1.48490276
H      -0.76833258     -0.95911167      2.39166639
H      -2.84441616      1.51023016      0.80242538
H      -1.60397399      2.53178140      0.05280015
H      -1.42701632      2.01617551      1.74007911
H      -1.25466822      0.46330978     -2.24723527
H      -2.52601236     -0.52519350     -1.50648320
H      -0.94339798     -1.23858144     -1.86043496
H       1.14347135      1.42421280     -0.57021615
H       1.32235941      0.90466370      1.10713156
H       1.79134622     -1.44865041      0.32392773
H       1.63130427     -0.91744311     -1.35406409
H       3.42863741      0.61418754     -0.97796145
H       3.88412421     -0.92629208     -0.69544892
