57
CC(=O)[O-].CCN(CC[n+]1ccccc1)c1ccc(N=Nc2ccc([N+](=O)[O-])cc2Cl)cc1
C      -0.63863222     -0.02863144      0.04403389
C       0.87476078      0.04563610     -0.06117301
O       1.34536021      1.19956494     -0.26223769
O       1.46917457     -1.06146778      0.06681067
C      -2.49628401      1.65913760      3.62761603
C      -2.98899840      1.58074196      2.18771862
N      -2.50228424      0.36431475      1.48841784
C      -3.12306311     -0.90375851      1.92251638
C      -3.21884608     -1.93121026      0.78329553
N      -4.04252854     -1.39375534     -0.33303099
C      -3.43640411     -0.73839841     -1.35159705
C      -4.18101819     -0.22967744     -2.40949457
C      -5.55904158     -0.40052749     -2.41692487
C      -6.16720155     -1.07527843     -1.36631916
C      -5.38420216     -1.56700728     -0.32739487
C      -1.14131787      0.39551877      1.14662988
C      -0.65465883      1.42513310      0.32068156
C       0.68638969      1.47857230     -0.08033109
C       1.58482742      0.49335490      0.32277747
N       2.93003911      0.56470884     -0.07672892
N       3.20760876     -0.38899135     -0.83823252
C       4.57628921     -0.35530297     -1.16769465
C       5.01173974      0.45063174     -2.23228528
C       6.35976508      0.48302190     -2.60148994
C       7.28483074     -0.30513879     -1.90246072
N       8.70154680     -0.27471769     -2.28562341
O       9.00460662      0.36055639     -3.30561248
O       9.50365573     -0.88826163     -1.56567288
C       6.87073444     -1.12440629     -0.84508919
C       5.51926281     -1.14803861     -0.48798117
Cl      5.03855601     -2.18381559      0.81135613
C       1.12313648     -0.52810682      1.15850889
C      -0.21851570     -0.57698734      1.56082173
H      -0.92298556     -0.43740345      1.01837957
H      -1.03313793     -0.67812905     -0.74316346
H      -1.09453983      0.96043067     -0.06264996
H      -2.89719343      2.55640980      4.11163683
H      -1.40333208      1.70863828      3.67825265
H      -2.82168187      0.79028854      4.20836769
H      -2.70950558      2.49424006      1.65201514
H      -4.08658112      1.57153258      2.18680773
H      -2.59628358     -1.33130184      2.78340446
H      -4.14422301     -0.69905748      2.26978385
H      -2.24115521     -2.20580801      0.37293233
H      -3.69878504     -2.85253412      1.13205887
H      -2.35671456     -0.62483269     -1.30830439
H      -3.68738599      0.29706637     -3.22337729
H      -6.15607257     -0.01035835     -3.24081889
H      -7.24593271     -1.21784374     -1.35841052
H      -5.82150755     -2.09999338      0.51176451
H      -1.32097525      2.20405316     -0.04220982
H       1.03072666      2.29405081     -0.71237391
H       4.29063680      1.06040662     -2.77460219
H       6.66898010      1.12255314     -3.42825243
H       7.58254413     -1.74140819     -0.30186939
H       1.82021492     -1.28582190      1.50939607
H      -0.49439735     -1.37998326      2.23742241
