33
CCCCCCOC(=O)n1cc(F)c(=O)[nH]c1=O
C       5.40182455      0.54893181     -1.62246862
C       4.15047962      0.00433385     -0.95043580
C       3.77171590      0.83361266      0.27724783
C       2.58396800      0.26087445      1.05565600
C       1.27120761      0.29939636      0.27524736
C       0.09848046     -0.17506455      1.12774804
O      -1.08682955     -0.11180192      0.32345101
C      -2.23332487     -0.50652601      0.93945590
O      -2.25098448     -0.89139278      2.10845915
N      -3.38293948     -0.43623114      0.13051629
C      -4.59289032     -0.82632864      0.70291091
C      -5.74816928     -0.80510501      0.04136402
F      -6.90859111     -1.18436392      0.60599544
C      -5.78431345     -0.35531041     -1.35748510
O      -6.81246338     -0.31262269     -2.01991272
N      -4.56564096      0.01363804     -1.85985615
C      -3.35081414      0.00314651     -1.20172985
O      -2.36567640      0.37459292     -1.83497839
H       6.25617600      0.52707334     -0.93840641
H       5.25157984      1.58178919     -1.95260539
H       5.65412583     -0.05505277     -2.49968594
H       3.33319749      0.00687035     -1.67933928
H       4.32454545     -1.03746342     -0.65769060
H       4.63276325      0.88218170      0.95554177
H       3.55064214      1.86446807     -0.02531342
H       2.80522347     -0.76981449      1.35844169
H       2.46838749      0.84274573      1.97858374
H       1.33279414     -0.32881114     -0.62088700
H       1.07067041      1.31705342     -0.08218166
H       0.26367775     -1.20834008      1.45446107
H      -0.01945439      0.47441775      2.00290113
H      -4.57332714     -1.16008713      1.73719197
H      -4.54604045      0.32918993     -2.81878017
