19
O=C(O)c1cccc(O)c1C(=O)O
O       1.67881821     -2.08889906      0.84931029
C       1.78169170     -1.09901357      0.15116235
O       2.85776193     -0.88055796     -0.62508716
C       0.80771073      0.00496072      0.05047432
C       1.28381758      1.32723868      0.05280435
C       0.38851075      2.39717154      0.08809117
C      -0.98241226      2.15355929      0.14450443
C      -1.45808517      0.84307955      0.14314372
O      -2.81914489      0.69833226      0.22008093
C      -0.57109411     -0.24105928      0.06286480
C      -1.14259551     -1.59273778     -0.04489554
O      -2.18530365     -1.93745725      0.48486435
O      -0.48931916     -2.36846824     -0.92293896
H       3.41231253     -1.67833724     -0.49396632
H       2.35363267      1.52740101      0.04687941
H       0.75907583      3.41971865      0.09210385
H      -1.68327174      2.98378183      0.19295477
H      -3.03208956     -0.24065753      0.41170173
H      -0.96001588     -3.22805560     -0.90405249
