29
CC1=CC(C)C(CO)C(C)C1
C      -3.00830084     -0.65648569      0.94452286
C      -1.66776400     -0.19108316      0.45231783
C      -1.27647940      1.09115574      0.56038380
C       0.06882683      1.60635169      0.10930207
C      -0.11279600      2.46895309     -1.14473674
C       1.10411764      0.46841276     -0.11574628
C       1.70847925      0.03843078      1.23620643
O       2.88756987     -0.73052170      1.03134359
C       0.43988527     -0.69336139     -0.90500995
C       1.39731618     -1.82556743     -1.27891248
C      -0.79228831     -1.25349233     -0.16879315
H      -2.88335986     -1.43702614      1.70196190
H      -3.58698759      0.15640661      1.39557368
H      -3.59628557     -1.06510925      0.11640323
H      -1.94851931      1.82651856      0.99946640
H       0.44907578      2.27148639      0.89577234
H      -0.55016397      1.90593715     -1.97570376
H       0.84843785      2.87426096     -1.47835380
H      -0.77426355      3.31847634     -0.93895047
H       1.93009772      0.85654356     -0.72799753
H       2.00212760      0.91795645      1.81915639
H       1.00889173     -0.54849404      1.83813084
H       3.22189132     -0.97737025      1.91053870
H       0.08801075     -0.27578689     -1.85863316
H       1.69112884     -2.42050734     -0.40904383
H       2.30114925     -1.43252729     -1.75537043
H       0.91752408     -2.50810364     -1.98925198
H      -1.38589993     -1.83603191     -0.88512873
H      -0.48142168     -1.94942164      0.62055222
