31
CS(=O)c1ccc2oc3ccc(C(=O)O)cc3c(=O)c2c1
C       5.18539743      1.11282453     -0.34591225
S       4.95557605     -0.68319365     -0.29236312
O       5.79606508     -1.20648814      0.83566917
C       3.25440976     -0.68129607      0.32109755
C       2.96364248     -1.07656365      1.63299918
C       1.64446781     -1.08377645      2.09673273
C       0.60541626     -0.69981813      1.24989531
O      -0.66170982     -0.73331830      1.77674458
C      -1.71073658     -0.37115251      0.96795555
C      -2.98295367     -0.42680722      1.53810235
C      -4.10372227     -0.07296951      0.78114349
C      -3.95758388      0.33905890     -0.55148372
C      -5.17844566      0.70364035     -1.31012129
O      -6.31568827      0.67978783     -0.87823381
O      -4.91330894      1.08006878     -2.57187588
C      -2.68185489      0.39525461     -1.12376875
C      -1.56713635      0.03849868     -0.35688341
C      -0.21515260      0.08910048     -0.93182217
O      -0.01769446      0.45260558     -2.08343983
C       0.89416124     -0.31307133     -0.05638571
C       2.21110647     -0.30517019     -0.52958647
H       4.53311240      1.54715689     -1.10701872
H       6.22610653      1.31951851     -0.60723045
H       4.96612783      1.54832739      0.63216576
H       3.76540874     -1.38472249      2.30290847
H       1.43397108     -1.39286456      3.11785817
H      -3.10629250     -0.74515563      2.57074120
H      -5.09310340     -0.11972712      1.23445256
H      -5.79227895      1.28859638     -2.95258301
H      -2.54750232      0.71228143     -2.15604762
H       2.41019540     -0.01062539     -1.55794923
