55
COC(=O)C(C)NC(=O)COC(=O)CC1=CC=CC=CC1NC1=C(Cl)CC=CC=C1Cl
C       7.60906398      1.59122219      0.09598606
O       6.76745024      0.60102514     -0.49809213
C       5.99803500     -0.08165949      0.39434205
O       6.00313300      0.08185486      1.60859318
C       5.12575803     -1.11624461     -0.31751931
C       5.95687785     -2.33853647     -0.69089612
N       4.03016974     -1.48814555      0.58270715
C       2.81066759     -1.89873148      0.09199774
O       2.60651608     -2.09070623     -1.10688461
C       1.72067800     -2.10272684      1.14893479
O       0.43182355     -1.79279439      0.60621387
C       0.24021820     -0.45345823      0.41527640
O       0.95916707      0.41630960      0.89436346
C      -0.93422775     -0.22945721     -0.51974634
C      -1.49466638      1.17450504     -0.37831337
C      -1.09016101      2.14078267     -1.23086993
C      -1.52334639      3.52039388     -1.25828794
C      -1.92389392      4.26607239     -0.22124192
C      -2.04215654      3.84809454      1.15323410
C      -2.30981178      2.60209595      1.58132704
C      -2.47032239      1.34501012      0.77175121
N      -3.83118992      1.34419517      0.24326593
C      -4.51077202      0.18984168     -0.17735009
C      -5.10198146      0.11958375     -1.40030361
Cl     -5.00052407      1.47255528     -2.50318441
C      -5.83156406     -1.07602030     -1.97015834
C      -5.00124938     -2.33524584     -1.94853796
C      -4.40214223     -2.82069768     -0.85048722
C      -4.55303059     -2.24649572      0.46883623
C      -4.61606914     -0.93728445      0.77275606
Cl     -4.86926525     -0.53057051      2.45877381
H       8.02344549      2.21443396     -0.70545613
H       8.43242473      1.10183628      0.62297627
H       7.03915855      2.23718897      0.77174457
H       4.68384755     -0.65220514     -1.20980783
H       5.32208820     -3.15573489     -1.05758501
H       6.51700980     -2.71901984      0.17628937
H       6.68752577     -2.09117804     -1.47609808
H       4.11163559     -1.18735904      1.55120595
H       1.91480859     -1.52731584      2.06369121
H       1.72273305     -3.16370946      1.41750242
H      -0.58628636     -0.42291908     -1.53992646
H      -1.71429844     -0.96773376     -0.29665295
H      -0.39801294      1.88163224     -2.02876164
H      -1.47436196      3.99407042     -2.23536561
H      -2.18527814      5.30897027     -0.40559688
H      -1.95440143      4.64313064      1.89179948
H      -2.43808527      2.45603540      2.65724704
H      -2.32648238      0.51707266      1.47796704
H      -3.90404649      2.07650549     -0.46217194
H      -6.11885830     -0.89878449     -3.01626383
H      -6.77647596     -1.23821589     -1.42903440
H      -4.88852332     -2.86044409     -2.89848705
H      -3.82680565     -3.74082259     -0.91495158
H      -4.61594475     -2.98020143      1.27359954
