30
C=CCNC(=O)CN(CC=C)C(=O)C(Cl)Cl
C       4.41700798     -1.91678287      0.38242117
C       4.08694470     -0.61994323      0.31766677
C       3.07346601     -0.04979786     -0.61952877
N       1.95505395      0.39593640      0.16767857
C       0.97297543      1.17766577     -0.40433062
O       1.03330181      1.62330618     -1.54757145
C      -0.26302487      1.35819763      0.47898424
N      -1.21421790      0.26869840      0.23364793
C      -2.13909689      0.45060599     -0.88078950
C      -3.35234286      1.16669237     -0.37094102
C      -3.74660692      2.37389696     -0.79852286
C      -1.02411077     -0.92390553      0.93515242
O      -0.03977275     -1.04456625      1.67631518
C      -2.03936147     -2.05926215      0.74438323
Cl     -1.40357061     -3.18041107     -0.47771528
Cl     -2.30699541     -2.90348622      2.28702033
H       3.94604346     -2.65898703     -0.25504840
H       5.16690693     -2.26420379      1.08660682
H       4.58828216      0.08556899      0.97663439
H       3.49507519      0.79305053     -1.17705885
H       2.70972168     -0.78968742     -1.34090551
H       1.64330209     -0.21885222      0.92087142
H       0.03608962      1.37186805      1.53325676
H      -0.72729452      2.32538222      0.26041374
H      -1.63643349      1.00821768     -1.67864182
H      -2.43448429     -0.51048817     -1.30739168
H      -3.95138875      0.66626629      0.38602097
H      -3.19286545      2.92373118     -1.55466150
H      -4.63875498      2.84412354     -0.39482857
H      -3.01384908     -1.69283438      0.42086188
