31
CC(C)(C)C1CCC(O)CC1
C      -2.49379809     -0.96291274     -0.59026680
C      -1.66295332      0.24335487     -0.09898725
C      -2.11801225      1.47168451     -0.91805183
C      -2.01417324      0.49658852      1.37923423
C      -0.12649359     -0.02386707     -0.32230321
C       0.77227162      1.17669998      0.05518325
C       2.24787369      0.90513243     -0.23094485
C       2.73390040     -0.35892498      0.46838806
O       4.08642894     -0.61631615      0.10724284
C       1.86769355     -1.55792140      0.10066309
C       0.39052722     -1.29649088      0.38815723
H      -2.23363842     -1.22787136     -1.62104133
H      -3.56714341     -0.74013874     -0.56737683
H      -2.34346978     -1.84655360      0.03800106
H      -1.68769785      2.40199595     -0.53400704
H      -3.20736247      1.59076978     -0.88120477
H      -1.83236401      1.37184507     -1.97105681
H      -1.49516054      1.37419919      1.77670436
H      -3.08900513      0.67855250      1.49852122
H      -1.76305692     -0.36140539      2.01037940
H       0.00976112     -0.19022226     -1.40170054
H       0.48222153      2.06938023     -0.50771728
H       0.66033689      1.41490078      1.11905131
H       2.40633190      0.81834212     -1.31381809
H       2.85552810      1.76049257      0.08848827
H       2.71121360     -0.20926040      1.55402425
H       4.11955659     -0.75101616     -0.85525193
H       2.20687749     -2.44189047      0.65426620
H       2.00142373     -1.80490859     -0.96064295
H       0.25557528     -1.20741646      1.47210272
H      -0.17319260     -2.17682186      0.06396404
