21
COC(=O)c1sc(N)c(C#N)c1C
C       3.89912640      0.90222957     -0.03115935
O       2.48267404      1.07727895      0.00006925
C       1.76996983     -0.08572537     -0.07366083
O       2.29068004     -1.19281861     -0.15721327
C       0.33026561      0.15829508     -0.03898659
S      -0.29995844      1.74718103      0.08060545
C      -1.91865567      1.21354283      0.06234411
N      -2.92471245      2.11364441      0.13505106
C      -1.98944891     -0.16116358     -0.03492283
C      -3.24138693     -0.86255609     -0.07021855
N      -4.25343967     -1.43119491     -0.08783292
C      -0.69098905     -0.78909168     -0.09390709
C      -0.46350890     -2.26878259     -0.20208749
H       4.23132777      0.30853943      0.82619632
H       4.36374820      1.89011180      0.03182432
H       4.20739066      0.43443329     -0.97139114
H      -2.71129355      3.07357553      0.39441291
H      -3.87848679      1.83534447      0.35416454
H       0.10952844     -2.62922754      0.65847578
H       0.08834959     -2.50260538     -1.11840733
H      -1.40118021     -2.83101063     -0.23095171
