51
CSc1ccc2c(c1)N(CCC1CCCCN1C)c1ccccc1S2
C       3.53874985      4.87100280     -1.34793122
S       2.37190457      3.74807487     -2.16287573
C       2.94532063      2.18344054     -1.52221379
C       4.25883238      1.76718182     -1.68762365
C       4.65316475      0.53215930     -1.18313302
C       3.74054292     -0.30609419     -0.51456285
C       2.39721712      0.07964851     -0.33531382
C       2.03372827      1.33883202     -0.86898191
N       1.45810288     -0.76687370      0.32388201
C       0.18945110     -0.15042677      0.78277224
C      -0.92652838     -0.28897956     -0.26847660
C      -2.34137252      0.01383949      0.28990650
C      -2.37939564      1.42906393      0.91150968
C      -3.76029191      1.79601339      1.44135701
C      -4.81015598      1.59987966      0.36247260
C      -4.73103903      0.19167197     -0.21657037
N      -3.39150945     -0.10061838     -0.75639937
C      -3.41827602     -1.41643643     -1.40395633
C       1.68259320     -2.12968578      0.68050700
C       0.63590579     -2.97886071      1.10963727
C       0.84334925     -4.32107338      1.45103707
C       2.11272551     -4.86677185      1.37066942
C       3.16632587     -4.06679409      0.94493635
C       2.96164280     -2.71613246      0.59773646
S       4.41776892     -1.82936413      0.09868420
H       4.55262089      4.72556203     -1.72937183
H       3.24066906      5.90298359     -1.55195979
H       3.52953952      4.71514723     -0.26559574
H       4.98236953      2.38053073     -2.21654892
H       5.68708035      0.21959404     -1.31813663
H       1.01152794      1.69633440     -0.80214482
H       0.34747330      0.90203260      1.04676860
H      -0.12867499     -0.58870695      1.73766376
H      -0.72377726      0.36521046     -1.12435975
H      -0.89868647     -1.30971214     -0.66335620
H      -2.55298867     -0.71525168      1.08511230
H      -2.06856830      2.17101798      0.16414358
H      -1.67550951      1.50277631      1.74733113
H      -3.99926482      1.16731014      2.30790949
H      -3.76554686      2.83562362      1.78706704
H      -5.80820885      1.77443910      0.77994221
H      -4.66308989      2.33824042     -0.43586201
H      -5.47867700      0.12022376     -1.01638909
H      -5.00724251     -0.54239655      0.55203912
H      -2.52396823     -1.58017427     -2.01244941
H      -3.50954735     -2.23062094     -0.67636730
H      -4.25923968     -1.48914985     -2.10387797
H      -0.38899699     -2.62905205      1.17445126
H       0.00565487     -4.93450090      1.77296193
H       2.28485833     -5.90682056      1.63253734
H       4.16143673     -4.50333741      0.88336083
