21
O=[Si]([O-])O.O=[Si]([O-])O.O=[Si]([O-])[O-].O=[Si]([O-])[O-].[Mg+2].[Mg+2].[Mg+2]
O      -1.39500045     -1.27212033      0.22912225
Si     -0.51024996     -0.07454721     -0.30506652
O      -1.08010149      1.53880543      0.05455489
O       1.21382331     -0.34108548     -0.32977027
O      -1.25210299     -1.32936170      0.25670716
Si     -0.51828366     -0.07831801     -0.39321795
O      -1.15775975      1.47741896      0.10669019
O       1.23514446     -0.18524284     -0.41211746
O      -0.01704272      1.60883962     -0.03813182
Si     -0.00081783      0.04105388      0.10723384
O      -1.49106595     -0.83514513     -0.03161802
O       1.50892650     -0.81474837     -0.03748400
O      -0.06554044      1.59662230     -0.04883632
Si      0.00298387      0.04380228      0.13676584
O      -1.45575929     -0.86822227     -0.04252643
O       1.51831586     -0.77220232     -0.04540308
Mg      0.00000000      0.00000000      0.00000000
Mg      0.00000000      0.00000000      0.00000000
Mg      0.00000000      0.00000000      0.00000000
H       1.77152859      0.14894758      0.35115966
H       1.69300194      0.11550360      0.44193806
