31
CCCNC(=O)COC(=O)c1ccccc1
C       2.32481323     -1.73038215     -0.67066256
C       2.83719956     -0.84763707     -1.79974962
C       3.25500810      0.54195126     -1.32120915
N       2.14387158      1.31775047     -0.81533745
C       1.26035315      1.96591674     -1.65230563
O       1.39573950      2.01928838     -2.87189129
C       0.08551632      2.62957694     -0.93098313
O      -0.95361817      1.71218147     -0.58476613
C      -0.72392789      0.96318813      0.51985492
O       0.28303151      1.01286433      1.21138951
C      -1.86316713      0.04468655      0.78544194
C      -2.98011574     -0.03049426     -0.05793869
C      -4.02168702     -0.91406745      0.23563546
C      -3.95338403     -1.72464543      1.36833489
C      -2.84480791     -1.65613071      2.21090656
C      -1.80142632     -0.77468816      1.92120286
H       3.07412290     -1.82977135      0.12103637
H       1.40939119     -1.32430897     -0.23038148
H       2.09730556     -2.73181754     -1.04964610
H       3.70387360     -1.33593559     -2.26033118
H       2.06385293     -0.76856470     -2.57246156
H       3.71174302      1.09086858     -2.15223210
H       3.99471949      0.46866996     -0.51724762
H       1.84490271      1.16172307      0.14838350
H      -0.34638387      3.37526887     -1.60736177
H       0.44172403      3.17825875     -0.05039316
H      -3.05373961      0.58898854     -0.94850506
H      -4.88659022     -0.97083950     -0.42123907
H      -4.76545867     -2.41193148      1.59398029
H      -2.79210077     -2.28936067      3.09329482
H      -0.94076104     -0.73060704      2.58588340
