16
OCc1cc(Cl)c(Cl)c(Cl)c1
O       2.59152530     -0.63920735     -0.98011955
C       2.05908149     -0.05076497      0.19683279
C       0.55850689      0.02244929      0.09703470
C      -0.18275826     -1.03702151     -0.44381651
C      -1.58035202     -0.97879150     -0.51013528
Cl     -2.39433293     -2.34023309     -1.20309517
C      -2.26725884      0.14229345     -0.02477180
Cl     -3.99952385      0.21970345     -0.10152984
C      -1.53002875      1.19862527      0.52894096
Cl     -2.28001615      2.62361170      1.16522053
C      -0.13141438      1.13522177      0.59278929
H       3.55871542     -0.63958290     -0.88268935
H       2.49269217      0.94926439      0.30033994
H       2.34327633     -0.65757054      1.06253482
H       0.33991303     -1.91312447     -0.82708381
H       0.42197454      1.96512702      1.02954829
