36
O=c1c2ccccc2[nH]c2cc3c(=O)c4c(Cl)c(Cl)ccc4[nH]c3cc12
O      -2.15862965     -2.94432328      0.28689232
C      -2.30552836     -1.73490580      0.14149935
C      -3.66066246     -1.13255186      0.07525357
C      -4.79767846     -1.94195937      0.16535829
C      -6.06319204     -1.35996229      0.10858034
C      -6.18849866      0.02279400     -0.03093786
C      -5.04976853      0.82941175     -0.12021875
C      -3.77456913      0.25781021     -0.08632754
N      -2.62495685      1.06234471     -0.12495920
C      -1.32627525      0.53321451     -0.13797208
C      -0.21327704      1.36965654     -0.23004135
C       1.08032881      0.82708012     -0.18991948
C       2.26511348      1.71523420     -0.31125011
O       2.05959922      2.91105651     -0.48025258
C       3.64426506      1.13070800     -0.22796400
C       4.82469749      1.90086470     -0.29571141
Cl      4.80343143      3.62978897     -0.46208993
C       6.07158444      1.25080198     -0.22204555
Cl      7.58121630      2.09960817     -0.29565190
C       6.14673959     -0.13701063     -0.08751281
C       4.98257320     -0.89447218     -0.01724293
C       3.73041756     -0.27268029     -0.06832221
N       2.57599485     -1.07191197     -0.03697945
C       1.27942709     -0.54855463     -0.02910469
C       0.16835456     -1.38823673      0.06403277
C      -1.12252734     -0.84588779      0.02418271
H      -4.69739818     -3.01851185      0.28268711
H      -6.95109359     -1.98365023      0.17994159
H      -7.17685843      0.47566078     -0.06425594
H      -5.17038738      1.90543596     -0.21369112
H      -2.74003821      2.01348377     -0.45443083
H      -0.34097592      2.44482686     -0.33497697
H       7.11330947     -0.63454666     -0.04027991
H       5.06110698     -1.97548974      0.07616215
H       2.68118592     -2.03173205      0.27299096
H       0.29297005     -2.46339439      0.16960899
