71
C#CC1(OC(=O)c2ccc(Oc3ccccc3)cc2)CCC2C3CCC4=CC(=O)CCC4C3CCC21C
C       0.42496182     -0.64020264      5.36004591
C       0.05716337     -0.91982240      4.25094277
C      -0.37563691     -1.26569248      2.88477487
O       0.71556940     -1.06085045      1.94654994
C       1.84100732     -1.80567334      2.03730907
O       2.07950722     -2.70077761      2.82878525
C       2.76617502     -1.42283058      0.94336804
C       3.62572901     -2.40074280      0.42723895
C       4.49634642     -2.08401085     -0.61753826
C       4.53309541     -0.78416013     -1.12217448
O       5.37712862     -0.54659208     -2.18315433
C       6.18725952      0.56126681     -2.09147709
C       7.05765758      0.75442119     -1.01592150
C       7.89752926      1.86847033     -0.99840845
C       7.87325167      2.77718434     -2.05778507
C       7.01270437      2.57274487     -3.13884872
C       6.17625299      1.45670619     -3.16077388
C       3.68198645      0.19728609     -0.60928029
C       2.79989289     -0.12104791      0.42678182
C      -0.94352480     -2.68575125      2.75898371
C      -1.61879475     -2.66443424      1.39368497
C      -2.23462205     -1.25805122      1.24584993
C      -2.02781464     -0.64078645     -0.15734216
C      -2.55056420     -1.53648966     -1.30490814
C      -4.06668959     -1.49997518     -1.47348406
C      -4.47383608     -0.06702069     -1.65927384
C      -4.98669452      0.37758437     -2.81798516
C      -5.17312497      1.82886936     -3.05542226
O      -5.67388830      2.21021157     -4.10969840
C      -4.62899397      2.78793201     -2.02534972
C      -4.78270512      2.21337566     -0.62592482
C      -4.15345658      0.81462245     -0.47125120
C      -2.61509247      0.80841147     -0.22867118
C      -2.24600296      1.65068123      1.01437583
C      -1.17385961      1.00873319      1.88933586
C      -1.59755785     -0.39428616      2.39289789
C      -2.67310410     -0.21634834      3.50323905
H       0.76288348     -0.40111272      6.34219719
H       3.60928418     -3.41225356      0.82668172
H       5.14783828     -2.84767861     -1.03363982
H       7.09391372      0.04037675     -0.19916154
H       8.57964868      2.02107128     -0.16421317
H       8.53018425      3.64329786     -2.04484859
H       7.00199151      3.27628918     -3.96757855
H       5.51493190      1.28897083     -4.00658921
H       3.69310197      1.20485821     -1.01440548
H       2.14650810      0.65127874      0.82461504
H      -1.67542532     -2.90705474      3.54443758
H      -0.19403495     -3.47984640      2.79605714
H      -0.86603594     -2.85394921      0.61921564
H      -2.37834815     -3.44931114      1.31229476
H      -3.31389209     -1.35596772      1.41848600
H      -0.94302076     -0.56032250     -0.31668268
H      -2.08574307     -1.19406123     -2.24007299
H      -2.22701529     -2.57478768     -1.17946685
H      -4.35172450     -2.11515041     -2.33553979
H      -4.56989136     -1.92684549     -0.59850130
H      -5.20129445     -0.26932475     -3.66064955
H      -3.58013150      2.99498842     -2.25839164
H      -5.19013154      3.72601572     -2.09297905
H      -4.38384930      2.92300118      0.10600483
H      -5.85676772      2.12767896     -0.40581999
H      -4.63035326      0.36749389      0.41259495
H      -2.14060062      1.28832345     -1.09762632
H      -1.89266097      2.63505233      0.68273305
H      -3.12868949      1.84739068      1.63186753
H      -0.25038419      0.96956870      1.30345168
H      -0.95582749      1.66401675      2.74156861
H      -3.58951753      0.23220020      3.10423571
H      -2.96432158     -1.16890940      3.95825087
H      -2.31787989      0.44174778      4.30430845
