12
CC(O)C(=O)[O-].[Na+]
C      -0.90638918     -0.54513859      0.74762239
C      -0.04553174      0.49067492      0.05555852
O      -0.72813339      0.93319471     -1.14491615
C       1.35392912     -0.08304090     -0.32611880
O       1.64705286      0.09560062     -1.55104457
O       2.01487862     -0.62851185      0.59836341
Na      0.00000000      0.00000000      0.00000000
H      -0.46665351     -0.86632975      1.69675572
H      -1.03641768     -1.42987547      0.11428395
H      -1.90702188     -0.14551600      0.94354324
H       0.09519588      1.36912924      0.69336434
H      -0.02090910      0.80981306     -1.82741207
