53
CCN1CCN(C(CNS(=O)(=O)c2ccc(Cl)cc2)c2ccccc2)CC1
C       5.17021944      2.43398219      0.45260741
C       3.70793860      2.65118371      0.07949719
N       2.83135613      1.56401640      0.53953036
C       1.41747303      1.93870395      0.35303170
C       0.45252690      0.81298082      0.78742368
N       0.67895150     -0.45415503      0.04622600
C      -0.23669380     -1.53591842      0.54121801
C      -1.74613002     -1.20187981      0.28504183
N      -1.92584177     -0.63584050     -1.06698351
S      -3.39731623     -0.01405427     -1.53650617
O      -3.23936261      0.47654897     -2.88714630
O      -4.42762968     -0.96272379     -1.17851697
C      -3.56923438      1.40629454     -0.47811898
C      -4.39908153      1.34642890      0.64614362
C      -4.52831275      2.47096269      1.46409197
C      -3.84096138      3.64405011      1.14701892
Cl     -3.99913115      5.02524094      2.16028828
C      -3.02832242      3.70803753      0.01385074
C      -2.89425724      2.58737520     -0.80798996
C       0.07566290     -2.91572206     -0.04773796
C       0.07540282     -3.15158810     -1.43216350
C       0.35594234     -4.42137953     -1.94059799
C       0.64343680     -5.47319336     -1.07428388
C       0.65213090     -5.25686404      0.30144025
C       0.37037995     -3.98805946      0.81234671
C       2.10574834     -0.82515425      0.23797328
C       3.08453745      0.29967705     -0.17881528
H       5.27990136      2.23756827      1.52434465
H       5.75180246      3.33108297      0.21547549
H       5.61365658      1.60113491     -0.10118284
H       3.39336649      3.58800454      0.55694723
H       3.62175741      2.80124973     -1.00411256
H       1.19192242      2.82726454      0.95543514
H       1.21884349      2.19654666     -0.69637013
H      -0.56254621      1.18025617      0.61165032
H       0.55515318      0.64947825      1.86893221
H      -0.11507138     -1.61660679      1.63115011
H      -2.06712277     -0.46739509      1.03048902
H      -2.37301704     -2.09320531      0.39943831
H      -1.09593134     -0.18904884     -1.46377048
H      -4.94466586      0.43658582      0.88856376
H      -5.17016067      2.42956991      2.34087987
H      -2.50627765      4.62817154     -0.23729368
H      -2.27244686      2.64082352     -1.69930801
H      -0.13973606     -2.34496347     -2.12868918
H       0.34758109     -4.58744074     -3.01483797
H       0.85988225     -6.46107815     -1.47220905
H       0.87712665     -6.07766263      0.97762336
H       0.38468543     -3.84483998      1.89059229
H       2.29323054     -1.09005043      1.28765204
H       2.35924486     -1.69928582     -0.37111148
H       4.09810029     -0.05689759      0.03495698
H       3.01128925      0.45178763     -1.26411490
