31
CC(C)CCOC(=O)c1ccccc1O
C      -4.24595073     -0.43603780      1.78822654
C      -3.45316694     -0.49669523      0.48047196
C      -4.06622972      0.46272837     -0.54038516
C      -1.97147622     -0.19240404      0.75406374
C      -1.07244822     -0.36377447     -0.46768932
O       0.28495200     -0.16006179     -0.04684377
C       1.20237927     -0.29558857     -1.03387584
O       0.96691305     -0.56624287     -2.20396814
C       2.58249355     -0.07330714     -0.53357917
C       2.83539393      0.23625293      0.81213286
C       4.14523769      0.44042618      1.25524623
C       5.20987235      0.33748563      0.36109480
C       4.96914834      0.03043665     -0.97758170
C       3.66365206     -0.17378511     -1.42260816
O       3.52533850     -0.47062901     -2.75348043
H      -3.84717919     -1.14788558      2.51874155
H      -5.29791646     -0.68881440      1.61808844
H      -4.20510891      0.56458107      2.23205173
H      -3.53545127     -1.51703621      0.08504508
H      -3.59855866      0.35079320     -1.52320523
H      -3.95209499      1.50507327     -0.22409188
H      -5.13596550      0.26345359     -0.66668441
H      -1.85647153      0.82723256      1.14479316
H      -1.60290545     -0.85194585      1.55106854
H      -1.32002149      0.37507336     -1.23717832
H      -1.17921835     -1.37538796     -0.87601250
H       2.02274917      0.32228317      1.52945884
H       4.33473061      0.67998977      2.29907306
H       6.22896802      0.49622579      0.70532033
H       5.79767215     -0.05037361     -1.67666965
H       2.57066295     -0.59262122     -2.95102317
