38
Nc1ccc(/C=C/c2ccc(N)cc2S(=O)(=O)[O-])c(S(=O)(=O)[O-])c1.[Na+].[Na+]
N      -6.03547002     -0.92537986      0.10230443
C      -4.67184764     -0.59408703      0.02166021
C      -3.70019982     -1.58774082      0.10969613
C      -2.34583682     -1.27722472     -0.05948218
C      -1.92074343      0.03373070     -0.34663189
C      -0.47755780      0.27713232     -0.52190904
C       0.47756760     -0.27712214      0.24885107
C       1.92075086     -0.03372074      0.07355318
C       2.34583993      1.27723980     -0.21358161
C       3.70019690      1.58774965     -0.38281350
C       4.67183904      0.59408435     -0.29484999
N       6.03546289      0.92536544     -0.37557251
C       4.27891156     -0.68845305      0.08502639
C       2.91724052     -1.01115718      0.25165390
S       2.52011006     -2.73405978      0.69010787
O       1.56556232     -3.14367591     -0.33547229
O       3.81047609     -3.42261496      0.60976595
O       1.99001647     -2.61153941      2.04578190
C      -2.91723208      1.01115747     -0.52478809
S      -2.52009649      2.73405850     -0.96324608
O      -3.81046303      3.42261424     -0.88292152
O      -1.98998762      2.61152990     -2.31891387
O      -1.56556007      3.14368232      0.06234071
C      -4.27890861      0.68844684     -0.35821568
Na      0.00000000      0.00000000      0.00000000
Na      0.00000000      0.00000000      0.00000000
H      -6.60193728     -0.11471361      0.33468800
H      -6.20059654     -1.70925726      0.72375047
H      -3.97598383     -2.61778709      0.31222674
H      -1.61395869     -2.08218208      0.01897668
H      -0.21672601      0.95446614     -1.33146917
H       0.21674240     -0.95445936      1.05841019
H       1.61396244      2.08220214     -0.29199587
H       3.97597898      2.61779787     -0.58533812
H       6.60189438      0.11469363     -0.60802178
H       6.20054790      1.70923851     -0.99703867
H       5.02816895     -1.45828548      0.24719776
H      -5.02816354      1.45827062     -0.52043785
