24
CCc1cccc2ccccc12
C      -2.84391474     -0.89969037      0.39646252
C      -2.15055352     -0.21746103     -0.77382628
C      -0.89586067      0.51459115     -0.34458036
C      -1.00931720      1.88800263     -0.06216677
C       0.09547018      2.62641666      0.34613748
C       1.33177377      2.00314853      0.48360829
C       1.48152516      0.63422281      0.21925455
C       2.73875173      0.02534259      0.37015941
C       2.91401704     -1.33376529      0.11823357
C       1.83216157     -2.10232083     -0.28761292
C       0.57569542     -1.51082591     -0.44306132
C       0.36367108     -0.13400953     -0.19786867
H      -3.75184347     -1.40613778      0.05386299
H      -3.13084159     -0.17273504      1.16392672
H      -2.19822226     -1.64685011      0.86889100
H      -1.92012080     -0.94335614     -1.56135708
H      -2.84859395      0.49101191     -1.23818830
H      -1.96948074      2.39049597     -0.16049478
H      -0.00605154      3.68721604      0.55846916
H       2.18397117      2.59840434      0.80418494
H       3.59807407      0.61144943      0.68910393
H       3.89305354     -1.78873972      0.24046754
H       1.96006617     -3.16342923     -0.48435889
H      -0.24343041     -2.15098107     -0.75924675
