20
O=[N+]([O-])c1cccc2ccccc12
O      -2.47267337     -2.16877732      0.36064871
N      -2.43614461     -1.22105386     -0.43566685
O      -3.14843963     -1.10001598     -1.44194329
C      -1.50570366     -0.14217717     -0.15352739
C      -2.06160819      1.13216559      0.03131757
C      -1.22120055      2.20064559      0.31210661
C       0.15605036      1.99210336      0.40177618
C       0.72156139      0.71758356      0.20815246
C       2.11288244      0.54627321      0.29586360
C       2.69882296     -0.70320127      0.09872895
C       1.90126966     -1.80160000     -0.19118581
C       0.51617511     -1.65132324     -0.28151162
C      -0.10984364     -0.39292382     -0.07970108
H      -3.13537594      1.29115590     -0.04102130
H      -1.63143628      3.19676849      0.46109123
H       0.79621845      2.84552129      0.62272358
H       2.75914665      1.39339399      0.51883970
H       3.77761453     -0.81622444      0.17072208
H       2.35292886     -2.77842344     -0.34664736
H      -0.07024454     -2.53989043     -0.51076598
