36
CCN1C(=O)c2cccnc2N(CC)c2ncccc21
C      -3.86052976      1.04446034     -0.61928909
C      -2.79463205      0.23187898     -1.34520215
N      -1.50400167      0.23141587     -0.64150627
C      -0.72780765      1.38687728     -0.80881339
O      -1.07507976      2.30528314     -1.55909675
C       0.47406888      1.64216941      0.00106141
C       0.67041633      2.94732780      0.48200486
C       1.83499127      3.26640338      1.16442513
C       2.77337776      2.26935347      1.32235719
N       2.61456092      1.01148290      0.85510936
C       1.46433983      0.68762565      0.19804264
N       1.27956403     -0.63003605     -0.27627934
C       2.52701540     -1.41399123     -0.37016735
C       3.42596577     -0.89715166     -1.49354255
C       0.20266822     -1.37128757      0.27619735
N       0.49477957     -2.53115196      0.93390938
C      -0.50448032     -3.26453039      1.45802380
C      -1.82895337     -2.91429323      1.35693958
C      -2.13929490     -1.74425246      0.67344092
C      -1.13223711     -0.93345360      0.11570138
H      -3.56881148      2.09578769     -0.53092567
H      -4.80575804      1.00239359     -1.16933434
H      -4.03680840      0.66753213      0.39232983
H      -3.13986979     -0.79233240     -1.52513474
H      -2.64657635      0.66235137     -2.34381443
H      -0.08200551      3.71325872      0.30689538
H       2.00948334      4.26589719      1.54544094
H       3.71034796      2.45528211      1.83964167
H       2.30491754     -2.45424902     -0.64619100
H       3.07065933     -1.44987445      0.58309216
H       2.88442676     -0.87643184     -2.44543605
H       3.79941554      0.11225743     -1.29998274
H       4.29390686     -1.55419995     -1.61040669
H      -0.19615469     -4.16786259      1.97590846
H      -2.60431254     -3.53223219      1.79510368
H      -3.18759192     -1.47170783      0.60904085
