13
CC1(C)CO1
C       1.44627072      0.09859485      0.05511202
C      -0.02875611     -0.06580990     -0.12384828
C      -0.87397433      1.15743345      0.03120586
C      -0.65391274     -1.43199001      0.04146325
O      -0.38588903     -0.87391556     -1.25399817
H       1.67056662      0.41785337      1.07786897
H       1.98736759     -0.83508432     -0.13223951
H       1.83496937      0.85535905     -0.63401966
H      -1.93049582      0.95282475     -0.17260820
H      -0.79722014      1.54402017      1.05244306
H      -0.54527413      1.94157885     -0.65854263
H      -1.68959568     -1.50268119      0.35005296
H      -0.03405632     -2.25818351      0.36711033
