23
O=S(=O)(O)CCSc1ccccc1
O      -3.60125919      1.24322641      1.54563552
S      -3.68995734      0.07211859      0.70637393
O      -3.61084889     -1.27118137      1.23260178
O      -5.08412962      0.14159313     -0.10404790
C      -2.58497514      0.23966431     -0.68253083
C      -1.15151119      0.21189681     -0.18933743
S      -0.01555221      0.36627728     -1.61092938
C       1.54495007      0.12286369     -0.78164410
C       2.38498628     -0.91221385     -1.20381079
C       3.61552222     -1.12272805     -0.57757659
C       4.01661993     -0.29362599      0.46832729
C       3.19113546      0.74938147      0.88455774
C       1.96023782      0.96016913      0.25864367
H      -5.60963708     -0.65540319      0.12523507
H      -2.79657841     -0.59059865     -1.36438918
H      -2.82502275      1.18956750     -1.17158156
H      -0.94371606     -0.72759796      0.33432636
H      -0.97388534      1.03457099      0.51071737
H       2.08848988     -1.56457812     -2.02176676
H       4.26131298     -1.93190417     -0.90882463
H       4.97537509     -0.45599131      0.95437055
H       3.50791298      1.40353617      1.69298834
H       1.34053051      1.79095717      0.58558513
