60
COc1ccc2cc(C(C)C(=O)OCCCCN3CCN(C)CC3)ccc2c1
C      10.24390157      1.16404501     -1.55271755
O       9.15733285      0.28914709     -1.82789263
C       8.02094410      0.46177281     -1.08604144
C       7.82719709      1.42098925     -0.09496531
C       6.60879659      1.48624341      0.59021668
C       5.56591826      0.59404561      0.29659209
C       4.33749347      0.64722785      0.97880831
C       3.29694203     -0.25095838      0.68713371
C       1.98285380     -0.15055645      1.44258020
C       1.51749769     -1.48488025      2.03390896
C       0.89940322      0.51256188      0.60339919
O       0.63580422      1.70834199      0.66139376
O       0.28852057     -0.37998267     -0.22590492
C      -0.72919185      0.15477139     -1.08559353
C      -2.07361965      0.24787584     -0.36626621
C      -2.56424177     -1.11845982      0.12105071
C      -3.86886611     -1.06581907      0.92828740
N      -4.99291021     -0.58455309      0.11346931
C      -5.38440155      0.79339027      0.48781680
C      -6.58414669      1.30360547     -0.34325034
N      -7.76392480      0.42747666     -0.20615941
C      -8.85979428      0.89777158     -1.04938902
C      -7.38589106     -0.95410781     -0.56042582
C      -6.17669947     -1.45868367      0.26133616
C       3.49887118     -1.20122942     -0.32144285
C       4.71472949     -1.26530046     -1.00735656
C       5.75750337     -0.37670221     -0.70774401
C       6.98626700     -0.42899805     -1.38697233
H      10.59674978      1.04371618     -0.52311252
H      11.06778246      0.89402160     -2.22032387
H       9.97501809      2.20500068     -1.76015119
H       8.59949216      2.13445451      0.17121353
H       6.48053790      2.24484370      1.35947010
H       4.19040341      1.40410538      1.74824053
H       2.12915880      0.51289517      2.30705463
H       1.31427800     -2.23873711      1.26586666
H       2.27581869     -1.89612596      2.70945783
H       0.59187480     -1.34890042      2.60451084
H      -0.80940761     -0.52097168     -1.94414228
H      -0.42739451      1.13185776     -1.48128494
H      -1.98613124      0.91976793      0.49499622
H      -2.80111135      0.68489285     -1.05856778
H      -1.79729260     -1.57644034      0.75762986
H      -2.69373994     -1.78781255     -0.73895450
H      -3.72672871     -0.46148866      1.83343289
H      -4.05843138     -2.08765911      1.28354055
H      -4.54576258      1.47950959      0.32900018
H      -5.64478828      0.84251883      1.55409128
H      -6.28186775      1.38562141     -1.39629452
H      -6.83756919      2.31251713      0.00420496
H      -9.74253205      0.26167843     -0.92110374
H      -8.59360375      0.90692524     -2.11259049
H      -9.15767629      1.91174900     -0.76056611
H      -8.23333329     -1.62389340     -0.37008720
H      -7.14520406     -1.02668311     -1.62987700
H      -5.92872771     -2.46830500     -0.08865087
H      -6.46657972     -1.53805763      1.31809420
H       2.71151370     -1.90094119     -0.59383886
H       4.84089154     -2.01644867     -1.78433667
H       7.14807358     -1.17264530     -2.16450415
