12
C/C=C\C
C       1.58638007     -0.20250612     -0.36279521
C       0.60909255      0.81237666      0.13507148
C      -0.70893346      0.65802578      0.33705952
C      -1.53406701     -0.56793429      0.11541476
H       1.13613385     -1.17370620     -0.57689786
H       2.37212272     -0.35396911      0.38397663
H       2.05659337      0.15967126     -1.28242976
H       1.04043867      1.78876997      0.35435400
H      -1.26502270      1.51878272      0.70766664
H      -0.96007532     -1.41918839     -0.25565311
H      -2.00856653     -0.86698184      1.05531980
H      -2.32409619     -0.35334044     -0.61108688
