49
O=C1C(CCS(=O)c2ccccc2)C(=O)N(c2ccccc2)N1c1ccccc1
O       0.28522228     -1.44546817      0.77758388
C      -0.30084752     -0.50881077      0.25338961
C       0.39702716      0.63719245     -0.43460443
C       1.44382368      1.29986922      0.46620400
C       2.77968280      0.55766191      0.52251281
S       3.78824461      0.87488412     -0.96934116
O       3.14601304      0.14243870     -2.11127744
C       5.21247873     -0.12575946     -0.48001440
C       5.37840178     -1.42696074     -0.96491512
C       6.48274477     -2.18645412     -0.57507466
C       7.42765434     -1.64729942      0.29682115
C       7.27207455     -0.34772592      0.77760023
C       6.16795234      0.41359746      0.38894368
C      -0.70507484      1.59717476     -0.80192010
O      -0.50621717      2.71450288     -1.25907053
N      -1.91992734      0.98745267     -0.44734910
C      -3.05036439      1.77764065     -0.05963265
C      -3.88929836      1.38321812      0.99546559
C      -4.99677480      2.15376769      1.36444527
C      -5.28490887      3.33247266      0.68422296
C      -4.46661868      3.74017666     -0.36425953
C      -3.35944994      2.96871360     -0.73258777
N      -1.67818206     -0.30633237      0.08513985
C      -2.57744600     -1.40361898     -0.10811679
C      -2.39156867     -2.61987237      0.56496912
C      -3.27294272     -3.69064315      0.38011345
C      -4.35614799     -3.56398871     -0.48330892
C      -4.55801994     -2.36734668     -1.16260086
C      -3.67637669     -1.29745536     -0.97669452
H       0.81358712      0.26394380     -1.37371805
H       1.04474877      1.35457754      1.48810890
H       1.61866794      2.33750299      0.15516875
H       3.35283855      0.92991751      1.37837857
H       2.64961211     -0.52135605      0.63968371
H       4.64898866     -1.85553888     -1.64937133
H       6.60556142     -3.19735402     -0.95577421
H       8.28858676     -2.23951283      0.59720623
H       8.01371411      0.07329998      1.45181863
H       6.06504930      1.42804877      0.76543035
H      -3.69038212      0.48113970      1.56769455
H      -5.63074849      1.83175635      2.18697032
H      -6.14487895      3.93259659      0.97022889
H      -4.68729459      4.65868669     -0.90279748
H      -2.76026255      3.31185773     -1.57293965
H      -1.57223134     -2.75854524      1.26582693
H      -3.10938620     -4.62291481      0.91545298
H      -5.03914050     -4.39694278     -0.62829845
H      -5.39861124     -2.26374072     -1.84448327
H      -3.85957285     -0.39044966     -1.54654721
