36
O=C(CCCCC(=O)NCCO)NCCO
O       2.33167469     -0.32161063      1.73382813
C       2.84585957      0.55692933      1.05061177
C       2.11926897      1.81038875      0.59559970
C       0.61717671      1.77220453      0.87488616
C      -0.13157664      0.86732463     -0.10784513
C      -1.61992297      0.79724169      0.22789982
C      -2.39815220     -0.03465131     -0.77431285
O      -1.91680468     -0.49110552     -1.80509562
N      -3.72081274     -0.19345031     -0.42083392
C      -4.58773890     -1.09419814     -1.15882502
C      -6.05580048     -0.81023360     -0.85586852
O      -6.29335647     -0.95185375      0.54555023
N       4.16571597      0.52676156      0.64797946
C       4.97392277     -0.66343703      0.84928445
C       4.79887257     -1.65343224     -0.30260126
O       5.31382137     -1.08988571     -1.51174852
H       2.30350361      1.97107511     -0.47276226
H       2.55976896      2.65191336      1.14386354
H       0.22008679      2.79103566      0.78685890
H       0.42905039      1.44529102      1.90458039
H       0.00238224      1.24881309     -1.12783817
H       0.29024718     -0.14466696     -0.09399071
H      -1.75358136      0.35896734      1.22393544
H      -2.05104071      1.80525790      0.23546065
H      -3.97636367     -0.04623743      0.54946587
H      -4.32266880     -2.10993541     -0.84516822
H      -4.38968183     -0.99818862     -2.23125761
H      -6.69818345     -1.51529149     -1.39201877
H      -6.32224535      0.21140368     -1.14531905
H      -7.24368192     -0.79575733      0.68557314
H       4.42966788      1.12064194     -0.12895655
H       6.01343273     -0.32467966      0.90472915
H       4.70194494     -1.13480311      1.79898587
H       3.74344286     -1.89234629     -0.46583040
H       5.33823307     -2.58417476     -0.10105715
H       6.28353890     -1.08531029     -1.43832485
