18
NN=c1nc[nH]c2nccnc12
N       3.40677439     -0.42249934     -0.57781556
N       2.14169011     -0.91822701     -0.49097103
C       1.21076061     -0.05447203     -0.18538184
N       1.56525235      1.26751870      0.09076878
C       0.60949074      2.09597099      0.34675209
N      -0.71766001      1.82545354      0.39663704
C      -1.14858188      0.52402083      0.18141824
N      -2.47219588      0.25195044      0.26671580
C      -2.81779843     -1.04184580      0.04703443
C      -1.88821554     -2.03017023     -0.24294018
N      -0.56575126     -1.77548011     -0.32882584
C      -0.22123684     -0.47646298     -0.11278488
H       4.07187123     -1.06456372     -0.15080496
H       3.47604718      0.48638223     -0.10986556
H       0.84334666      3.15236893      0.56049691
H      -1.42996314      2.50587998      0.61325725
H      -3.87714873     -1.26715246      0.11131712
H      -2.18668156     -3.05867197     -0.41500781
