20
OCc1ccc(CO)cc1
O       3.43930203     -0.56092112      0.77169584
C       2.89912692      0.21865005     -0.28649963
C       1.39478652      0.19036029     -0.25324314
C       0.68354271      1.13151762      0.50153515
C      -0.71143385      1.08846128      0.55517009
C      -1.41917045      0.10350652     -0.14505000
C      -2.92050781      0.03902553     -0.06274322
O      -3.32888277     -0.76982799      1.03191757
C      -0.70659404     -0.85370912     -0.87806299
C       0.68838239     -0.81065278     -0.93169810
H       2.69659346     -0.93486099      1.27592676
H       3.27121818      1.24404554     -0.18964587
H       3.27475257     -0.17501383     -1.23686937
H       1.21389959      1.90416809      1.05517238
H      -1.24432875      1.82829416      1.14968796
H      -3.34297278     -0.37926602     -0.98242970
H      -3.34650879      1.03978690      0.06480092
H      -2.52806976     -1.09613462      1.47679763
H      -1.23568203     -1.64165182     -1.41097318
H       1.22254666     -1.56577771     -1.50548910
