17
O=C(O)CC1NC(=O)NC1=O
O       3.10088729     -0.65150275      0.85417446
C       2.19744801     -0.58578513      0.03744281
O       2.44293566     -0.17994203     -1.22040365
C       0.78079706     -1.02347353      0.26745037
C      -0.21513312     -0.09851016     -0.40248870
N      -1.57751309     -0.57570935     -0.28075064
C      -2.39372733      0.34331407      0.33498728
O      -3.59992312      0.23663133      0.45534920
N      -1.63295003      1.37996772      0.75292097
C      -0.34388582      1.22808714      0.34903510
O       0.55599254      2.02892909      0.54895083
H       3.39373190      0.06669241     -1.20679077
H       0.60936593     -1.05343396      1.35056541
H       0.67993360     -2.04646724     -0.11220864
H      -0.02021757      0.09421421     -1.46150757
H      -1.98208755     -1.35389228     -0.78672482
H      -1.99565437      2.19088048      1.22389103
