14
Cc1ncc([N+](=O)[O-])[nH]1
C       2.37531587     -0.14636269     -0.24721134
C       0.96899129      0.24043092      0.01584030
N       0.54017058      1.39252428      0.49811241
C      -0.83034526      1.29136288      0.56858725
C      -1.22000914      0.06046681      0.12125410
N      -2.49812483     -0.52689332     -0.00470004
O      -2.52868382     -1.68103314     -0.45096224
O      -3.46776177      0.15590424      0.33844725
N      -0.08424809     -0.60811140     -0.22967492
H       2.65050845     -1.02381964      0.34596025
H       2.51812215     -0.38142031     -1.30639405
H       3.05469135      0.67019518      0.01581724
H      -1.44228474      2.10622305      0.93442027
H      -0.03634205     -1.54946688     -0.59949648
