26
CCCC1OC1(CC)C(N)=O
C       2.38858834      0.82526556      1.36850381
C       2.50739194      1.32408787     -0.06314868
C       1.16070430      1.41531406     -0.78219363
C       0.55459958      0.06877701     -1.03507141
O      -0.76647535      0.12686848     -1.59126301
C      -0.65417321     -0.47966203     -0.28345437
C      -0.85997966     -1.97566763     -0.29873333
C      -2.32748951     -2.35436634     -0.42731854
C      -1.25298174      0.31591971      0.82713781
N      -2.25149812      1.17144196      0.46701185
O      -0.87331674      0.19072026      1.98262176
H       1.72536089      1.46935535      1.95422171
H       2.00176405     -0.19757886      1.40431400
H       3.37172303      0.82702227      1.84998065
H       2.96630915      2.31974202     -0.04929530
H       3.18683588      0.66646576     -0.61812920
H       0.48429775      2.07160404     -0.22407976
H       1.32506553      1.89694920     -1.75399077
H       1.24918199     -0.62121415     -1.49808526
H      -0.45236597     -2.40209853      0.62518415
H      -0.30594146     -2.43284916     -1.12753863
H      -2.90999332     -1.98222173      0.42150217
H      -2.43690760     -3.44280168     -0.46094776
H      -2.76223816     -1.93788941     -1.34177735
H      -2.44366038      1.34024102     -0.51211690
H      -2.62480121      1.79657495      1.16666600
