9
N#CCCCl
N       2.55879044      0.35609860      0.71977234
C       1.54965671     -0.05072971      0.31783547
C       0.26678209     -0.55064164     -0.18547589
C      -0.82039238      0.48691201      0.03564999
Cl     -2.38290793     -0.11136768     -0.57267266
H       0.01057053     -1.48433505      0.32865591
H       0.35788730     -0.78335188     -1.25285816
H      -0.94468751      0.71652898      1.09911063
H      -0.59569925      1.42088638     -0.49001763
