23
CC(=O)OCCCOC(C)=O
C       4.65046031      0.90484921     -0.34122584
C       3.60731855     -0.07092252      0.10956943
O       3.84753395     -1.15970784      0.61114627
O       2.36461537      0.43450947     -0.12211973
C       1.29481911     -0.43245197      0.27855173
C      -0.02009312      0.26212137     -0.04023785
C      -1.21642262     -0.59025773      0.35384166
O      -2.40823973      0.13458470      0.02097640
C      -3.56191094     -0.52143507      0.32451125
C      -4.74393102      0.31450848     -0.05957013
O      -3.63370011     -1.62982703      0.83544161
H       4.54957152      1.08598324     -1.41424046
H       4.55122836      1.83839554      0.21823176
H       5.64339473      0.48786379     -0.15004334
H       1.36711427     -0.62781885      1.35493259
H       1.36545746     -1.37777734     -0.27223019
H      -0.06589342      1.23364555      0.46841530
H      -0.06750000      0.50651716     -1.10921316
H      -1.19935400     -0.78909527      1.43187825
H      -1.20101154     -1.53905345     -0.19528470
H      -5.66372276     -0.22267321      0.18895564
H      -4.72903460      1.25522513      0.49646822
H      -4.73069978      0.50281664     -1.13600558
