12
Ic1ccccc1I
I       3.25332927     -0.97486800      0.00851310
C       1.24841597     -0.34716576      0.00370441
C       0.28649215     -1.36825566     -0.01982667
C      -1.07485525     -1.06057265     -0.02500347
C      -1.48617960      0.26828617     -0.00673255
C      -0.53659661      1.29088276      0.01673333
C       0.83408335      0.99141140      0.02210796
I       2.13395141      2.64148669      0.05823525
H       0.58318456     -2.41490743     -0.03441972
H      -1.81256368     -1.85925575     -0.04330417
H      -2.54618007      0.51082759     -0.01071629
H      -0.88308151      2.32213064      0.03070883
