40
CN1CCC23c4c5ccc(O)c4OC2C(=O)CCC3C1C5
C      -3.60938997      1.32853942     -0.41550092
N      -2.53454539      0.36408069     -0.63633711
C      -1.68873743      0.76669527     -1.76689260
C      -0.58275366     -0.26033770     -2.05721915
C       0.15231304     -0.70570841     -0.77542762
C       0.91464211      0.44073112     -0.21312692
C       0.43635780      1.39770585      0.66219028
C       1.32510369      2.40786327      1.03932332
C       2.65107337      2.41122269      0.55165552
C       3.10304580      1.38834255     -0.28323675
O       4.39859302      1.37022949     -0.69355184
C       2.22226180      0.39734984     -0.64300836
O       2.49454990     -0.72752537     -1.38293372
C       1.36339317     -1.60578906     -1.07262843
C       1.75006893     -2.53173353      0.09371403
O       2.90207295     -2.94177673      0.25347724
C       0.63622023     -3.02513803      0.99053704
C      -0.24118573     -1.87088231      1.45601907
C      -0.88374555     -1.18538016      0.24560971
C      -1.77498440      0.04348418      0.59929697
C      -0.95313894      1.23187136      1.22228997
H      -4.25274521      1.01197116      0.41268900
H      -4.25140041      1.38774218     -1.30168772
H      -3.23985097      2.33655398     -0.20249270
H      -2.30422116      0.85781474     -2.67076372
H      -1.24693265      1.75608078     -1.59589894
H      -1.03414450     -1.14238232     -2.53138715
H       0.11119845      0.16620437     -2.79304869
H       1.01128270      3.18999519      1.72682497
H       3.33749579      3.19758907      0.85495595
H       4.51138938      0.53378549     -1.18506888
H       1.17930896     -2.25001396     -1.94058333
H       0.05475689     -3.77149040      0.43875505
H       1.08031379     -3.51923625      1.86156300
H      -1.02546066     -2.25467348      2.11898355
H       0.35772419     -1.16999611      2.04797655
H      -1.51919694     -1.94885518     -0.23013692
H      -2.50663851     -0.28077770      1.35157933
H      -1.49838936      2.17715115      1.13928864
H      -0.84570453      1.02869287      2.29614380
