42
CCCC1C(=O)N2C(N(C)C)=Nc3ccc(C)cc3N2C1=O
C      -5.10971420      2.07415526     -0.71013198
C      -3.95079694      1.90366671      0.26013081
C      -3.12553568      0.65672659     -0.06886225
C      -1.97165823      0.44817872      0.91419511
C      -1.49051233     -0.98364837      0.87625793
O      -2.20106579     -1.94343840      1.14045533
N      -0.14475128     -0.95048120      0.47867001
C       0.78498532     -1.99560990      0.33759757
N       0.36728532     -3.30811680      0.50830314
C       1.35189462     -4.28340122      0.97890465
C      -0.55648451     -3.87439924     -0.47624017
N       2.04015115     -1.75967628      0.06303548
C       2.47684507     -0.43944414     -0.12114488
C       3.82309656     -0.22811227     -0.42707260
C       4.31584495      1.06322890     -0.61810912
C       3.46063752      2.16379077     -0.51459366
C       3.99019391      3.55771105     -0.68482603
C       2.11099314      1.95445822     -0.19252051
C       1.61510613      0.65855522     -0.00196612
N       0.27633902      0.37749437      0.31765978
C      -0.75848072      1.26976382      0.55107388
O      -0.75151191      2.49069170      0.49778738
H      -5.68725250      2.96876093     -0.45701642
H      -4.74802100      2.18256387     -1.73762806
H      -5.78405560      1.21270222     -0.67169453
H      -4.34607156      1.82855842      1.27982616
H      -3.32281334      2.79972960      0.22076949
H      -2.73935728      0.73482296     -1.09361327
H      -3.79246248     -0.21465163     -0.05467618
H      -2.25471997      0.67582185      1.94801847
H       0.85441328     -5.20630552      1.29614042
H       2.07082255     -4.53106266      0.19032569
H       1.89673155     -3.89404597      1.84590280
H      -1.17559457     -4.64754934     -0.00978260
H      -0.00075762     -4.32624984     -1.30563120
H      -1.22376105     -3.12176505     -0.90636472
H       4.49053797     -1.08164565     -0.51261763
H       5.36998567      1.20143278     -0.84790742
H       4.85292945      3.56930884     -1.35919149
H       3.22897071      4.21307593     -1.12097395
H       4.29461028      3.96297115      0.28501228
H       1.46300438      2.82143359     -0.09750157
