27
CCCC1CC(=O)C=C(C)C1
C      -3.73706869     -0.99197099     -0.05084498
C      -2.26062861     -0.84326748      0.28442052
C      -1.63313341      0.33116377     -0.46991293
C      -0.16923310      0.60328834     -0.07437219
C       0.33091188      1.87477988     -0.76732907
C       1.77280040      2.15927774     -0.41750686
O       2.22370177      3.30146033     -0.37293771
C       2.68316699      1.00934152     -0.20265110
C       2.22073818     -0.25122492     -0.22459915
C       3.14613505     -1.42549515     -0.07965189
C       0.75760454     -0.58261271     -0.39439560
H      -4.29547568     -0.09230523      0.22683831
H      -4.16580348     -1.83890304      0.49399421
H      -3.87999997     -1.16899678     -1.12162971
H      -2.15099874     -0.69417478      1.36468207
H      -1.74963334     -1.77749121      0.02858044
H      -1.69692007      0.14560525     -1.54975946
H      -2.22545763      1.23388562     -0.27174140
H      -0.13396966      0.77560600      1.01128430
H       0.25468761      1.79234685     -1.85766762
H      -0.27229291      2.73110994     -0.44402434
H       3.73019562      1.25512553     -0.06651557
H       4.19235884     -1.11638000      0.01635281
H       2.88678874     -2.00667502      0.81113922
H       3.07010358     -2.07750719     -0.95585098
H       0.59411022     -0.93153490     -1.42166077
H       0.50731185     -1.41445136      0.27486059
