36
Cc1cnc(NC(=O)C2=C(O)c3ccccc3S(=O)(=O)N2C)s1
C       6.78654976      0.76970921      1.05983668
C       5.50315905      0.32170986      0.46418447
C       5.27185178     -0.52600361     -0.59907205
N       3.94324684     -0.74384197     -0.90963129
C       3.18399064     -0.05635318     -0.08927054
N       1.82074096     -0.09879240     -0.18850274
C       0.90303102      0.55853424      0.58781974
O       1.10538705      1.33287863      1.51832156
C      -0.51024242      0.23991756      0.18321835
C      -1.57147153      0.88334200      0.71847965
O      -1.45081054      1.86828198      1.68715569
C      -2.97042938      0.60653826      0.32300012
C      -4.05064391      0.94198225      1.15060684
C      -5.36665308      0.67061590      0.75740150
C      -5.62546623      0.06212711     -0.47113834
C      -4.56974003     -0.27160295     -1.31459439
C      -3.26327225      0.01694415     -0.91075984
S      -1.90172156     -0.41555138     -1.93696259
O      -1.46402936      0.78508568     -2.61447677
O      -2.24914656     -1.61848645     -2.66387146
N      -0.72401811     -0.83483755     -0.76426797
C      -0.90586779     -2.18165992     -0.16124715
S       4.00157540      0.86047475      1.08995394
H       7.63789244      0.32566508      0.53344626
H       6.85191239      0.47313602      2.11178428
H       6.88546753      1.85836018      0.99758246
H       6.03812113     -1.01661812     -1.18764592
H       1.48000827     -0.67452901     -0.94935309
H      -0.49726715      1.99415697      1.89721890
H      -3.87831246      1.41934670      2.11405112
H      -6.19127763      0.93912516      1.41429104
H      -6.65029440     -0.14602931     -0.76994551
H      -4.76523153     -0.74389425     -2.27469122
H      -0.13072282     -2.36442018      0.59081762
H      -0.79440323     -2.95315796     -0.92885236
H      -1.88191228     -2.28215346      0.32203615
