24
Nc1cccc2c(S(=O)(=O)O)cccc12
N      -3.44867271     -0.02435107     -0.32722763
C      -2.15914457     -0.51743712     -0.02243109
C      -1.99605815     -1.90639728      0.02153173
C      -0.74878881     -2.46412892      0.25339042
C       0.36264800     -1.63737073      0.39571613
C       0.27243959     -0.22828892      0.27622195
C       1.38414455      0.65885563      0.36673201
S       3.03872303      0.05485114      0.62911519
O       3.06663706     -0.65944326      1.88529173
O       3.97064317      1.12889133      0.35136315
O       3.28959008     -1.00299906     -0.56328483
C       1.23583702      2.04639753      0.23169198
C      -0.01643326      2.58216543     -0.01524025
C      -1.11976934      1.73647939     -0.11280997
C      -1.01669169      0.33322412      0.04346511
H      -3.63044240      0.89208344      0.06680092
H      -4.19078711     -0.67553988     -0.08855705
H      -2.85051901     -2.56552247     -0.10732491
H      -0.63622968     -3.54315558      0.32019319
H       1.31235220     -2.13213594      0.58945671
H       4.01042793     -0.64585591     -1.12405047
H       2.09067600      2.71546294      0.30757745
H      -0.14036653      3.65549683     -0.13665140
H      -2.08021539      2.19871834     -0.32709876
