47
CCS(=O)(=O)NCC(c1ccccc1)N1CCCCCC1
C       5.65280211     -0.59216986      0.64548509
C       4.21375967     -0.13816004      0.50346471
S       3.12345944     -1.52158633      0.19066318
O       3.40366217     -2.06823363     -1.11803203
O       3.08974990     -2.35429268      1.37232591
N       1.64091873     -0.76239476      0.12752946
C       1.16659256     -0.22349714     -1.16671599
C      -0.25534179      0.41874003     -1.00913809
C      -0.04353438      1.85050002     -0.49540770
C       0.33885525      2.10845537      0.83203388
C       0.54726128      3.41592407      1.27316534
C       0.37882889      4.48341536      0.39441305
C       0.00031539      4.24533208     -0.92521173
C      -0.20924522      2.93812356     -1.36919445
N      -1.20873811     -0.39197456     -0.16462886
C      -2.49597342      0.32460831     -0.01366495
C      -3.53437441     -0.33091683      0.90671504
C      -4.21633569     -1.54216137      0.28690895
C      -3.43665338     -2.84111715      0.42762171
C      -1.92171515     -2.73690026      0.30728847
C      -1.41382756     -1.74077617     -0.73706894
H       5.76381007     -1.29662126      1.47600450
H       6.30555519      0.26529674      0.83491231
H       5.99964345     -1.09193981     -0.26463207
H       4.11730940      0.55780756     -0.33468022
H       3.87511695      0.34809159      1.42313945
H       0.91408542     -1.20374658      0.69845791
H       1.88829127      0.50758702     -1.54922790
H       1.10938639     -1.03995354     -1.89460736
H      -0.68453582      0.49151494     -2.01897732
H       0.46347824      1.28585025      1.53324895
H       0.83685626      3.59962800      2.30450217
H       0.53937600      5.50147774      0.73935248
H      -0.13296229      5.07943567     -1.60942853
H      -0.50447474      2.77680669     -2.40352383
H      -2.31650156      1.30784710      0.43374349
H      -2.94515066      0.51172085     -0.99837715
H      -4.31060890      0.42018967      1.10425990
H      -3.09446773     -0.57655995      1.88068526
H      -4.42586276     -1.34943674     -0.77260792
H      -5.19507841     -1.68381268      0.76245054
H      -3.66958318     -3.29769111      1.39812447
H      -3.80970254     -3.54535544     -0.32693986
H      -1.48874055     -2.50021005      1.28839689
H      -1.53870849     -3.73581125      0.05977248
H      -0.46093795     -2.15844462     -1.07279402
H      -2.05605935     -1.71458880     -1.62631048
