23
C[N+](C)(C)CC1CO1.[Cl-]
C      -0.83395076      0.72349724     -1.36002111
N      -0.77367447     -0.28281653     -0.21466141
C      -1.59280617      0.23548353      0.95547478
C      -1.36859012     -1.60338636     -0.69239458
C       0.69131423     -0.52996921      0.20612268
C       1.47658173      0.65422048      0.67811640
C       2.93482252      0.82179631      0.32329680
O       1.90041959      1.54567118     -0.35837750
Cl      0.00000000      0.00000000      0.00000000
H      -1.86513535      0.76612972     -1.72434808
H      -0.53975253      1.70722970     -0.98625473
H      -0.16380148      0.38561188     -2.15563542
H      -1.51602805     -0.48255522      1.77711609
H      -1.20150623      1.21018938      1.25881223
H      -2.63345546      0.33545866      0.63221811
H      -0.78708103     -1.95656001     -1.54918338
H      -2.40931503     -1.43196973     -0.98343418
H      -1.31735990     -2.32339240      0.12973494
H       1.18162029     -0.99383291     -0.65925519
H       0.66039614     -1.27920766      1.00646524
H       1.13639035      1.07058846      1.61618590
H       3.57168654      1.38372134      0.99757979
H       3.44922519      0.04409216     -0.22829080
