43
CC1(C)O[C@@H]2CO[C@@]3(COS(N)(=O)=O)OC(C)(C)O[C@H]3[C@@H]2O1
C       1.96063285      3.01431618      0.32652240
C       2.24592041      1.54188955      0.58759015
C       3.33448842      1.38979166      1.64813881
O       2.69969309      0.92031046     -0.62644525
C       1.74952337     -0.11377769     -0.91166236
C       0.73564436      0.36976459     -1.94407996
O      -0.35084138     -0.53649443     -2.07882063
C      -1.10612307     -0.73196748     -0.87687109
C      -2.09554818      0.42187383     -0.63727555
O      -1.47556871      1.57533663     -0.09616685
S      -2.26126834      2.34825291      1.08674507
N      -1.25252769      3.61963702      1.47383404
O      -3.45516505      2.94690963      0.54164967
O      -2.29137867      1.49876702      2.25303084
O      -1.90467940     -1.91413251     -1.07348692
C      -1.10987562     -3.00486006     -0.60661092
C      -1.96424390     -3.85650980      0.32497155
C      -0.61311944     -3.82339492     -1.79203971
O       0.02104692     -2.51375609      0.11963841
C      -0.23826838     -1.10810620      0.32399019
C       1.10380420     -0.40248498      0.42279935
O       1.04254501      0.89178394      1.03323294
H       1.64256564      3.52450151      1.24120703
H       2.84128156      3.52399620     -0.07749118
H       1.15623371      3.13246939     -0.40610557
H       4.26192155      1.88150829      1.33624097
H       3.57555591      0.33436641      1.81668490
H       3.01214658      1.80525745      2.60861938
H       2.26712301     -1.00041433     -1.29395596
H       1.22996886      0.44348964     -2.91935623
H       0.36780603      1.37832818     -1.73604905
H      -2.56430451      0.71116361     -1.58505904
H      -2.90428113      0.07104889      0.01720424
H      -1.76886113      4.49367781      1.38156021
H      -0.88085443      3.46954953      2.41165533
H      -2.85184423     -4.24061929     -0.18881197
H      -1.39211153     -4.69606917      0.73311766
H      -2.31597680     -3.26085324      1.17540520
H       0.00518853     -4.66493417     -1.46235909
H       0.00820524     -3.21014747     -2.45454046
H      -1.44800054     -4.20216838     -2.39135818
H      -0.80135071     -1.01784055      1.26075835
H       1.78489758     -1.00945956      1.03394928
