32
Cc1ccc(Cl)cc1NS(=O)(=O)c1ccc(N)cc1
C       2.09265284     -0.89378185      1.36601867
C       2.14849262     -0.16004537      0.05497662
C       2.78988218      1.08830895      0.00141124
C       2.87047224      1.79700565     -1.19791570
C       2.31698799      1.25917014     -2.35524801
Cl      2.42320798      2.13134796     -3.83451594
C       1.67818392      0.02237285     -2.32388952
C       1.58359576     -0.68488951     -1.12189097
N       0.90584363     -1.93920714     -1.09493296
S      -0.73851558     -2.02851673     -1.46747502
O      -1.16174309     -3.35601993     -1.07162129
O      -0.96028654     -1.54428791     -2.81260797
C      -1.47902380     -0.87271871     -0.33736385
C      -1.67171043      0.45414979     -0.72679786
C      -2.25591811      1.35463830      0.16737057
C      -2.70428317      0.92872541      1.42186996
N      -3.17394748      1.86044106      2.35407139
C      -2.47497110     -0.39610393      1.80764057
C      -1.88923685     -1.30706034      0.92474658
H       1.05629740     -1.09457069      1.65126770
H       2.54580584     -0.30991765      2.17429207
H       2.64074598     -1.83857616      1.29372937
H       3.23223181      1.52047072      0.89729606
H       3.36896536      2.76270764     -1.22223896
H       1.26504825     -0.39099061     -3.24059975
H       1.17889246     -2.62691068     -0.39621126
H      -1.35858503      0.79928287     -1.70954428
H      -2.36449815      2.39536041     -0.12807634
H      -3.75977511      1.45811481      3.07941202
H      -3.59732380      2.68303783      1.93485050
H      -2.75865223     -0.73152380      2.80217951
H      -1.74883579     -2.34001337      1.23387452
