18
CCSS(=O)(=O)CC
C       3.04365033     -0.46376644     -0.51493272
C       2.40631133      0.37512633      0.57747580
S       0.86832432     -0.36486609      1.18846318
S      -0.49495400      0.15207375     -0.31488747
O      -0.39219935      1.58729935     -0.49198008
O      -0.25903679     -0.75414057     -1.42109178
C      -2.10672102     -0.20706933      0.35672173
C      -3.20976115      0.12131898     -0.62941011
H       2.41963196     -0.50795903     -1.41215259
H       3.24054479     -1.48606383     -0.17501591
H       4.00263642     -0.02303608     -0.80761867
H       3.09731477      0.44781382      1.42353480
H       2.22026958      1.39307826      0.22255782
H      -2.22375344      0.38490185      1.26930346
H      -2.12882594     -1.27070770      0.61189566
H      -4.18810305     -0.10689279     -0.19577240
H      -3.19465529      1.18208776     -0.89934489
H      -3.10067347     -0.45919824     -1.55105137
