32
CC(=O)Nc1ccc(S(=O)(=O)Nc2ncccn2)cc1
C       5.32266400     -0.62605591     -2.28540207
C       4.04000218      0.06073420     -1.88606803
O       3.59352402      0.98751328     -2.55227835
N       3.47497083     -0.50286063     -0.75622593
C       2.28829379     -0.11127994     -0.10259209
C       1.89386304     -0.86846815      1.01077134
C       0.72974224     -0.55049711      1.71614199
C      -0.05068581      0.53038518      1.30252954
S      -1.50929919      0.95427356      2.22363819
O      -1.18095659      0.74645301      3.62140484
O      -2.00402263      2.24040788      1.78094994
N      -2.59095983     -0.24391092      1.83204808
C      -3.29020610     -0.10360084      0.64004549
N      -4.55309876     -0.53569647      0.71333471
C      -5.22585538     -0.54904497     -0.45275418
C      -4.66523568     -0.19159094     -1.65734788
C      -3.34204454      0.18041256     -1.60788839
N      -2.62367177      0.21035689     -0.47116867
C       0.33893216      1.30445244      0.20919895
C       1.50374773      0.97706609     -0.49403675
H       5.89497296     -0.93123187     -1.40460414
H       5.08893587     -1.50329247     -2.89423451
H       5.93930802      0.06624064     -2.86591354
H       3.95640942     -1.29874923     -0.35745360
H       2.48646890     -1.71567062      1.34666172
H       0.44082671     -1.14250350      2.58142812
H      -3.18072443     -0.52393882      2.60653531
H      -6.26148191     -0.87101846     -0.38896339
H      -5.22422678     -0.21035317     -2.58253660
H      -2.80273463      0.46769911     -2.50624393
H      -0.25903254      2.15505699     -0.11113294
H       1.77157467      1.59871220     -1.34299960
