21
CC(=O)N/N=C/c1ccc([N+](=O)[O-])o1
C       1.81752993     -3.22300899      1.30087221
C       2.83102256     -2.11803813      1.17066896
O       4.02315803     -2.28009482      1.42614299
N       2.36376563     -0.89694159      0.74695506
N       1.05083301     -0.67655696      0.45389673
C       0.76649280      0.52694944      0.06735471
C      -0.58181254      0.88558068     -0.27058729
C      -1.76359647      0.16380741     -0.27712842
C      -2.78657055      1.04851145     -0.70477778
C      -2.15656104      2.24892395     -0.92930314
N      -2.64986722      3.51542727     -1.37032229
O      -3.86447167      3.57951940     -1.60232945
O      -1.83789184      4.44193624     -1.48622276
O      -0.82248298      2.17216191     -0.67268546
H       1.35445285     -3.42417886      0.33108926
H       1.05432363     -2.94823081      2.03394563
H       2.31627368     -4.13435185      1.64349707
H       3.05462678     -0.15766416      0.66209356
H       1.53458560      1.31652512     -0.01794738
H      -1.86357781     -0.87905025     -0.00322441
H      -3.84023234      0.83877360     -0.83188567
