19
C=CC(O)C(=O)OCC
C      -2.99342714      0.35508720     -1.39569208
C      -1.96801565      0.54258608     -0.55165768
C      -1.51732492     -0.38751503      0.54614801
O      -2.39437447     -1.50934819      0.63141849
C      -0.06512241     -0.83979823      0.30052906
O       0.24503224     -1.98341561     -0.01893701
O       0.80895553      0.19211106      0.47685938
C       2.18046844     -0.15749930      0.25566220
C       3.02643338      1.08052689      0.48038887
H      -3.62051304     -0.53056539     -1.34762357
H      -3.23776950      1.09717802     -2.14953853
H      -1.39282094      1.46264473     -0.64635353
H      -1.55936426      0.12365181      1.51341696
H      -2.00432133     -2.19591786      0.05654700
H       2.47966312     -0.94292346      0.95868195
H       2.31046841     -0.51249214     -0.77282353
H       2.89121479      1.46021440      1.49855054
H       4.08638529      0.86286026      0.32231129
H       2.72443246      1.88261476     -0.20120905
