45
CC1=N[C@@](Cc2ccccc2)(c2cccc(-c3cncnc3)c2)N=C1N
C       1.59407549      3.14678578      1.21315514
C       1.28070434      1.96709566      0.36870589
N       0.55019335      0.96158670      0.71727949
C       0.58393351      0.08309264     -0.49476931
C       1.25765403     -1.27249977     -0.11525965
C       2.68555772     -1.16999359      0.39106085
C       2.94536050     -0.97139926      1.75395278
C       4.25746476     -0.85925165      2.21569220
C       5.32216941     -0.94441108      1.32042177
C       5.07577110     -1.13991685     -0.03732000
C       3.76404367     -1.25133396     -0.50051660
C      -0.83929631     -0.20340736     -0.99428909
C      -1.08925744     -0.46487074     -2.34959177
C      -2.37884298     -0.74912287     -2.79511066
C      -3.44088699     -0.78266397     -1.89060011
C      -3.23540497     -0.53607850     -0.52400885
C      -4.35021742     -0.57468717      0.42912092
C      -5.55697967      0.07158305      0.21324261
N      -6.60533053      0.05223337      1.06675160
C      -6.41996058     -0.64986020      2.19337944
N      -5.30796386     -1.31797988      2.53015019
C      -4.29884726     -1.26095544      1.63202572
C      -1.92467249     -0.25254572     -0.09692574
N       1.39919716      0.74542659     -1.56290556
C       1.80990783      1.83803981     -1.01643551
N       2.62449315      2.74396989     -1.62490819
H       1.27009167      4.05956825      0.70662829
H       2.67135396      3.19309406      1.39261013
H       1.07708556      3.06988898      2.17339955
H       1.25128719     -1.94729922     -0.98300879
H       0.66014721     -1.78405301      0.65269598
H       2.12162164     -0.89721655      2.46129938
H       4.44742027     -0.70900967      3.27512938
H       6.34378189     -0.86304800      1.68172756
H       5.90490440     -1.21000198     -0.73622088
H       3.58262519     -1.39766319     -1.56334473
H      -0.27290698     -0.44561099     -3.06946227
H      -2.55535406     -0.94815222     -3.84909907
H      -4.43420073     -1.02109406     -2.26631082
H      -5.72511998      0.65978354     -0.68569888
H      -7.24485735     -0.68015577      2.89648738
H      -3.41205484     -1.81970802      1.92173782
H      -1.73793695     -0.04741150      0.95742014
H       3.29141237      3.21882148     -1.02794925
H       3.05783403      2.36043238     -2.45944167
