18
Cc1[nH]c(C)c(Cl)c(=O)c1Cl
C      -2.46948827     -0.79100716     -0.41082944
C      -1.21653232      0.00428147     -0.14122911
N      -0.04477594     -0.73205215     -0.11886378
C       1.20548115     -0.18496071      0.11189230
C       2.34969261     -1.16755071      0.09281733
C       1.34661644      1.13802482      0.33372957
Cl      2.85659006      1.91539293      0.63052352
C       0.12289171      2.00917588      0.32623189
O       0.19701909      3.22109559      0.52301225
C      -1.19525356      1.33663181      0.06808271
Cl     -2.59621959      2.34144430      0.06065980
H      -3.38229109     -0.19088047     -0.42412848
H      -2.39310454     -1.28991231     -1.38322830
H      -2.59628550     -1.56035093      0.35880268
H      -0.10612799     -1.73510778     -0.28173059
H       2.19585926     -1.93478059      0.85962536
H       2.39905290     -1.66434669     -0.88240481
H       3.32687559     -0.71509729      0.27703711
