30
O=C(O)c1ccc2c(c1C(=O)O)C(=O)c1ccccc1C2=O
O      -4.74966618      0.78036627      0.51161509
C      -4.16972354      0.60592575     -0.54033476
O      -4.83318250      0.43492547     -1.69719945
C      -2.70550643      0.55290589     -0.75054111
C      -2.16207968      1.13249695     -1.90369597
C      -0.78154824      1.14229551     -2.09282756
C       0.06716914      0.56251061     -1.13794726
C      -0.45952993     -0.03968059      0.01019833
C      -1.85465081     -0.02399692      0.20613810
C      -2.46285840     -0.64401356      1.38468090
O      -3.06472908     -1.69856050      1.39649111
O      -2.31618466      0.16296970      2.44695588
C       0.47056243     -0.70068715      0.96123043
O       0.05899705     -1.35379987      1.91065355
C       1.92939289     -0.59587943      0.75252707
C       2.80761104     -1.14650604      1.69629139
C       4.18779722     -1.05968572      1.50488219
C       4.69598162     -0.42661109      0.37173046
C       3.82441861      0.11982687     -0.57113409
C       2.43925581      0.03415416     -0.37786842
C       1.52494692      0.60787564     -1.37814597
O       1.96712841      1.12612330     -2.39658319
H      -5.77845887      0.44436716     -1.43339270
H      -2.80745060      1.59107897     -2.65139045
H      -0.36908348      1.60578595     -2.98919444
H      -2.74485316     -0.32992811      3.17799629
H       2.42083079     -1.64623988      2.58329239
H       4.86567129     -1.48845374      2.23992154
H       5.77130358     -0.35999010      0.22088822
H       4.22843876      0.61042448     -1.45523756
