19
O=[PH]([O-])O.O=[PH]([O-])O.O=[PH]([O-])O.[Al+3]
O      -1.03872369     -0.89517691     -1.00025167
P      -0.38487381     -0.06359664      0.05181393
O      -0.66209811      1.55548457     -0.27088357
O       1.23874736     -0.44948946      0.15360264
O      -0.75638796     -0.71300065      1.28674663
P      -0.36656770     -0.06999799     -0.02830456
O      -1.45799493      1.21764862     -0.27899853
O       1.16183894      0.59517347      0.11081759
O      -1.28748442     -1.01483548     -0.70513064
P      -0.40372602     -0.04861123      0.03193790
O      -0.79233673      1.56467158     -0.34081876
O       1.18929717     -0.37948472     -0.49842231
Al      0.00000000      0.00000000      0.00000000
H      -0.99593526     -0.38302115      1.29099176
H       1.84288349      0.23579959     -0.22527310
H      -0.48049630     -1.01709525     -1.04236637
H       1.89960794     -0.01272820     -0.04789476
H      -0.47914281     -0.27051106      1.43020703
H       1.77339281      0.14877091      0.08222678
