31
CC(C)c1ccc(-c2ccccc2)cc1
C      -3.99313545     -0.91232778     -1.02014749
C      -3.41758175      0.05034935      0.02152311
C      -3.93987088      1.47173633     -0.20207078
C      -1.90016414      0.00987398      0.04013245
C      -1.22726976     -0.40447706      1.19662910
C       0.17082815     -0.44961999      1.23419576
C       0.93915839     -0.08155505      0.11978117
C       2.40998663     -0.12886129      0.16105092
C       3.08663104     -1.30189003      0.53534013
C       4.48296186     -1.34791560      0.57421288
C       5.22722622     -0.21945927      0.24004534
C       4.57682262      0.95384769     -0.13322704
C       3.18043618      0.99763181     -0.17266169
C       0.25973366      0.33308356     -1.03528364
C      -1.13824880      0.37801009     -1.07636426
H      -3.62967762     -1.93248994     -0.85341635
H      -5.08683501     -0.93264179     -0.96242990
H      -3.71971083     -0.62332230     -2.04079630
H      -3.78754539     -0.27777968      1.00207196
H      -5.03255064      1.49607985     -0.12870039
H      -3.53799362      2.15935197      0.55046370
H      -3.66457642      1.85921302     -1.18902709
H      -1.78436769     -0.69505362      2.08461690
H       0.66032192     -0.76559647      2.15331069
H       2.52409229     -2.19817444      0.78906977
H       4.98685840     -2.26649525      0.86299343
H       6.31296571     -0.25437782      0.27048293
H       5.15402485      1.83765860     -0.39170982
H       2.69168536      1.92771853     -0.45589111
H       0.81927693      0.61526042     -1.92495311
H      -1.62348223      0.70222217     -1.99401701
