20
CC(C)C1OCCO1
C      -1.84129062      1.23144168     -0.32327707
C      -0.86894451      0.08241226     -0.59766496
C      -1.64160333     -1.19225039     -0.94252732
C       0.07990762     -0.14313313      0.59022474
O       0.99713638     -1.21252012      0.30745682
C       2.27151738     -0.58184330      0.19416800
C       2.15048211      0.61082764      1.10057562
O       0.81770521      1.05834923      0.86533565
H      -1.30678115      2.17197045     -0.15539610
H      -2.45574861      1.02714228      0.56012397
H      -2.51334517      1.38296284     -1.17477663
H      -0.26905569      0.35630717     -1.47553862
H      -0.96256057     -2.00383331     -1.22312428
H      -2.31579308     -1.02070106     -1.78851590
H      -2.24439004     -1.53140439     -0.09322921
H      -0.48357569     -0.41456842      1.49066742
H       3.07100191     -1.26843502      0.48287397
H       2.40970027     -0.28195200     -0.85025511
H       2.87086593      1.40148264      0.87743628
H       2.23477168      0.32774494      2.15544272
