45
O=C(O)C(O)C(O)C(=O)O.c1cnc2cc3c(cc2n1)C1CNCC3C1
O      -1.35192071     -1.77359088      1.21677877
C      -1.46253042     -0.78849409      0.50812377
O      -2.45955010     -0.67727647     -0.39893522
C      -0.58347343      0.45687370      0.53709870
O      -0.84006553      1.40679263     -0.50620826
C       0.89576039      0.08804399      0.50380497
O       1.69367291      1.29774828      0.53393322
C       1.27146700     -0.66675338     -0.77204108
O       0.60580999     -1.53659731     -1.31026146
O       2.48178145     -0.26496701     -1.24460599
C       4.38788243      0.19845606     -0.77227442
C       4.36309713     -0.92286488      0.03171081
N       3.23332207     -1.36172774      0.62709137
C       2.11795768     -0.64295639      0.39725747
C       0.92408670     -1.05140425      0.98202201
C      -0.22236537     -0.31659293      0.75336911
C      -0.19721671      0.82124862     -0.06246425
C       0.97472788      1.23978164     -0.66076239
C       2.14367092      0.52037455     -0.43685232
N       3.28410631      0.93579298     -1.02022969
C      -1.59600793      1.38303939     -0.15956985
C      -2.41652225      0.67123023     -1.26074403
N      -2.38514811     -0.80935462     -1.20233182
C      -2.46093914     -1.33826698      0.18007061
C      -1.63868212     -0.54776062      1.22481522
C      -2.13138099      0.91002156      1.20350295
H      -2.89881285     -1.55625767     -0.37852693
H      -0.81220092      0.98479611      1.46978955
H      -1.70515331      1.14363855     -0.88848115
H       1.18826610     -0.53040512      1.35837978
H       1.16374249      1.95800304      0.03173149
H       2.81320693      0.45844563     -0.66058016
H       5.30261513      0.53848100     -1.24389998
H       5.25744357     -1.50507766      0.22132885
H       0.90619442     -1.93863992      1.60637024
H       0.99580777      2.11579424     -1.30066433
H      -1.61570865      2.47224348     -0.25342302
H      -3.46203980      0.99699840     -1.20200723
H      -2.04854154      0.97566853     -2.24777537
H      -1.48538038     -1.10620913     -1.58861657
H      -3.51406023     -1.35654291      0.48549063
H      -2.12274124     -2.38109989      0.15903858
H      -1.69212132     -0.98513495      2.22551921
H      -1.68201334      1.48804467      2.02352594
H      -3.22004290      0.99645750      1.29050227
