26
O=C(c1ccccc1)c1cccc(N=C=S)c1
O      -0.07606569     -2.35100810     -0.38710202
C      -0.27544006     -1.14772367     -0.24282396
C      -1.66832337     -0.63397660     -0.23683471
C      -2.05437248      0.43715195      0.57836674
C      -3.37801932      0.88206803      0.56175911
C      -4.31730039      0.25332882     -0.25610593
C      -3.94004268     -0.82748555     -1.05279147
C      -2.61865936     -1.27593174     -1.03937829
C       0.88912320     -0.24276133     -0.08250147
C       0.90445897      1.04065990     -0.64038837
C       2.02284952      1.85690148     -0.47156994
C       3.13067231      1.38465024      0.23533323
C       3.14447810      0.08527563      0.76067446
N       4.25539078     -0.37357396      1.48776435
C       5.02858650     -0.93661766      0.80480242
S       6.23525914     -1.79086657     -0.22291993
C       2.01037322     -0.72031997      0.60738694
H      -1.34512107      0.92160053      1.24422049
H      -3.68089653      1.71270728      1.19487791
H      -5.34868822      0.59816323     -0.26368830
H      -4.67563796     -1.32617066     -1.67917788
H      -2.33084614     -2.12696150     -1.65369786
H       0.06052571      1.41300301     -1.21631428
H       2.03524077      2.85946476     -0.89302088
H       3.99399855      2.03221909      0.37292856
H       1.99845651     -1.72379662      1.02904274
