43
CC1(c2cccc(-c3cccnc3)c2)N=C(N)C(c2ccccc2)=N1
C       0.32735907     -1.42402336     -2.77503220
C       0.47643051     -1.38459545     -1.24841454
C      -0.90523544     -1.48088817     -0.59815932
C      -1.49055168     -2.72786773     -0.33166460
C      -2.75751944     -2.81395538      0.24341533
C      -3.46428085     -1.65225763      0.55669964
C      -2.92113556     -0.38444995      0.29768930
C      -3.66557248      0.84158363      0.62120502
C      -3.85011838      1.86541945     -0.31696223
C      -4.56351715      3.01379032      0.02302609
C      -5.07895594      3.11152962      1.30368660
N      -4.92895451      2.15737345      2.24477715
C      -4.22835997      1.05394726      1.88122319
C      -1.64197135     -0.32194864     -0.28505895
N       1.34554398     -2.52498002     -0.84660001
C       2.36514023     -1.97052237     -0.28405008
N       3.36368816     -2.68151642      0.31229995
C       2.27035082     -0.48484757     -0.34717539
C       3.28780109      0.45142473      0.14568699
C       2.86752285      1.67437248      0.68155078
C       3.80786873      2.58781963      1.15974298
C       5.16791795      2.28732500      1.09203654
C       5.59067169      1.07849185      0.53869223
C       4.65286643      0.16071804      0.06030916
N       1.15828369     -0.11011683     -0.89383785
H      -0.14171933     -2.35690479     -3.10885117
H       1.30431307     -1.35397366     -3.26789117
H      -0.28433837     -0.59030760     -3.13921020
H      -0.95506324     -3.64356391     -0.57562651
H      -3.19670319     -3.78794416      0.44242187
H      -4.45733144     -1.74709488      0.99156107
H      -3.44782373      1.76819733     -1.32286134
H      -4.71464578      3.80986279     -0.69707758
H      -5.64300414      3.98579233      1.61531547
H      -4.11969366      0.31611968      2.67268260
H      -1.19884917      0.65188529     -0.49208159
H       3.72949966     -2.27673779      1.16766496
H       3.09409091     -3.65287479      0.44072311
H       1.80784242      1.91788548      0.73076605
H       3.47896113      3.53545379      1.57939385
H       5.90009036      3.00257561      1.45961574
H       6.65316537      0.85734488      0.46840143
H       5.00593669     -0.75754152     -0.40176796
