30
Cc1cc(C(=O)NNCc2ccccc2)no1
C       6.51175363     -0.83398898      0.03725302
C       5.08352562     -0.47336148      0.04978207
C       3.93263673     -1.12533604      0.41253860
C       2.89773637     -0.18699622      0.16942670
C       1.46404714     -0.37147390      0.38796911
O       0.98501502     -1.41592166      0.82787322
N       0.69263499      0.73808757      0.05686943
N      -0.69548509      0.76018435      0.33252499
C      -1.47035112      0.46211298     -0.87827662
C      -2.94487506      0.38069703     -0.56586178
C      -3.71208934      1.54847433     -0.44589968
C      -5.07217425      1.47439901     -0.14134750
C      -5.67704208      0.23401132      0.05334451
C      -4.92226432     -0.93301002     -0.05146994
C      -3.56177106     -0.86121450     -0.35581358
N       3.40261712      0.96349628     -0.31271210
O       4.77138837      0.77587897     -0.38478391
H       7.08440179     -0.15542765      0.67685796
H       6.66238925     -1.85450417      0.40264541
H       6.91385597     -0.77335498     -0.97867152
H       3.83439675     -2.12948299      0.79864061
H       1.17405065      1.60030177     -0.19836431
H      -0.89121229      0.01389816      1.01222847
H      -1.30647677      1.24175595     -1.63296164
H      -1.13930652     -0.48369442     -1.32657616
H      -3.24732247      2.52250357     -0.58298308
H      -5.65798848      2.38526485     -0.05089714
H      -6.73553461      0.17720590      0.29273985
H      -5.39235671     -1.89993062      0.10766199
H      -2.98419924     -1.78057444     -0.42607866
