15
O.O.O.[Li+].[O-][Cl+3]([O-])([O-])[O-]
O       0.00474245      0.39778677      0.00000000
O       0.00291113      0.39780439      0.00000000
O       0.00029389      0.39781493      0.00000000
Li      0.00000000      0.00000000      0.00000000
O       1.39002517     -0.22477284     -0.34613657
Cl      0.00000000      0.00000000      0.00000000
O      -0.19482106      1.39724947      0.33502537
O      -0.84148330     -0.34837476     -1.12829261
O      -0.35372081     -0.82410186      1.13940381
H      -0.76578485     -0.18979189      0.00000000
H       0.76104239     -0.20799488      0.00000000
H       0.76199186     -0.20448909      0.00000000
H      -0.76490299     -0.19331530      0.00000000
H      -0.76361461     -0.19834345      0.00000000
H       0.76332072     -0.19947148      0.00000000
