38
O=C1NC2C(O)C(O)C(O)C(O)C2c2cc3c(c(O)c21)OCO3
O       1.14991262      2.84431774     -1.45198329
C       0.74472183      1.93224345     -0.73974865
N      -0.44229543      2.01300429     -0.05943075
C      -0.73444555      1.14466955      1.06977838
C      -2.18078451      1.31126674      1.56394818
O      -2.49302869      2.70387613      1.70801986
C      -3.20124549      0.64795225      0.63782904
O      -4.50098711      0.76716861      1.24341540
C      -2.86876017     -0.83369208      0.43350323
O      -3.83759795     -1.38835444     -0.46983533
C      -1.45778992     -1.02065125     -0.14196459
O      -1.49415009     -0.50797579     -1.48218279
C      -0.39751044     -0.32512442      0.74657741
C       0.99213594     -0.41756108      0.13923847
C       1.73509934     -1.60269502      0.27103557
C       2.98223602     -1.65568560     -0.31695280
C       3.50649281     -0.59784753     -1.02302291
C       2.80573229      0.58165354     -1.17964256
O       3.37803702      1.58965420     -1.90360040
C       1.53502762      0.67908033     -0.58784277
O       4.74366407     -0.87950045     -1.51837757
C       4.94068450     -2.22124322     -1.03753898
O       3.82013727     -2.72652026     -0.28050352
H      -0.86082647      2.94026179     -0.04742599
H      -0.06309329      1.50006523      1.86474372
H      -2.26910350      0.87316917      2.56642013
H      -3.46216932      2.73413459      1.84747333
H      -3.27057920      1.18064017     -0.31793504
H      -5.07620283      0.15823552      0.73540963
H      -2.97344796     -1.37548505      1.38062395
H      -3.52167298     -1.14185170     -1.36542665
H      -1.24582053     -2.09282792     -0.23317747
H      -0.64130501     -0.71159219     -1.90914011
H      -0.37995938     -0.85705515      1.70919961
H       1.35689661     -2.46188655      0.81645519
H       2.74140371      2.33803585     -1.95243477
H       5.10902845     -2.88180129     -1.89578814
H       5.83156572     -2.24007815     -0.39923262
