31
COC(=O)C1(S(=O)(=O)c2ccc(Cl)cc2)CCC1
C      -2.37119475      0.34356992      2.82807401
O      -2.29056450     -0.18349742      1.50164917
C      -1.26204201      0.31324502      0.74984244
O      -0.49425003      1.18000127      1.16730616
C      -1.20874077     -0.30104306     -0.66696696
S       0.14469701     -1.48737705     -0.66180117
O       0.29186816     -2.04927582     -1.99622170
O      -0.03060159     -2.40085661      0.45572356
C       1.67566383     -0.61344401     -0.35586908
C       2.34739144     -0.01373662     -1.42639207
C       3.55349209      0.65058914     -1.19419853
C       4.08263845      0.69986665      0.09633555
Cl      5.56877933      1.51990579      0.37725022
C       3.42083728      0.08324069      1.15880477
C       2.21503884     -0.58434112      0.93398158
C      -2.52280287     -0.85857945     -1.30079623
C      -2.70431003      0.51340555     -1.97575418
C      -1.18060960      0.70327279     -1.86106754
H      -3.20738307     -0.14486044      3.33578695
H      -2.56338960      1.42048269      2.79917664
H      -1.45340461      0.12608624      3.38323922
H       1.95236257     -0.06764100     -2.43841747
H       4.07995500      1.11989779     -2.02161149
H       3.83951394      0.11656393      2.16155293
H       1.70889767     -1.06929320      1.76591237
H      -2.38186839     -1.67769139     -2.01595570
H      -3.32556392     -1.14435812     -0.61592641
H      -3.10603636      0.49392341     -2.99182546
H      -3.28380257      1.22587144     -1.37742046
H      -0.63482231      0.36330284     -2.74841453
H      -0.85974865      1.72277014     -1.62849690
