39
CCOC(=O)c1ccc(N=CN(C)c2ccccc2)cc1
C       7.16426598     -1.31993258      0.73115585
C       6.14842854     -1.99299094     -0.17252150
O       4.82786033     -1.51652855      0.12591243
C       4.45100084     -0.38309925     -0.51687929
O       5.12831666      0.25098679     -1.31031176
C       3.06953345      0.00743480     -0.12250229
C       2.52891921      1.17619895     -0.67599418
C       1.23589394      1.58444499     -0.33562680
C       0.46548447      0.82794692      0.54994352
N      -0.82271848      1.24817690      0.90141322
C      -1.78807586      0.79117838      0.16640855
N      -3.13440885      1.05380278      0.32414211
C      -3.58270545      1.77593653      1.51241161
C      -4.13009382      0.49332081     -0.50873098
C      -5.39321831      0.11664165     -0.01807722
C      -6.36843268     -0.44193418     -0.85284405
C      -6.10397855     -0.63483214     -2.20404934
C      -4.86609804     -0.26862135     -2.71934472
C      -3.89379075      0.28740915     -1.88050406
C       1.00887898     -0.32914417      1.11337158
C       2.30210750     -0.74382548      0.77799349
H       6.90469665     -1.47488561      1.78352152
H       8.16675015     -1.71869607      0.55221974
H       7.18342956     -0.23839664      0.56398252
H       6.39467300     -1.84893100     -1.23081490
H       6.14841332     -3.07197009      0.01350550
H       3.11322344      1.77810177     -1.36952900
H       0.82706680      2.49895533     -0.75735245
H      -1.57204008      0.09973050     -0.66897378
H      -3.76878298      1.08062635      2.33822243
H      -2.83239136      2.50126287      1.84707964
H      -4.49263803      2.35571989      1.31752790
H      -5.63781242      0.22662457      1.03500413
H      -7.33271619     -0.72955309     -0.44156777
H      -6.86048158     -1.06707708     -2.85348371
H      -4.65376321     -0.40730272     -3.77638824
H      -2.95114566      0.59023810     -2.33014555
H       0.42055350     -0.90720906      1.82131460
H       2.69579598     -1.64980801      1.23147901
