18
O=C(O)c1cccc([N+](=O)[O-])c1O
O       2.49689398     -1.74004345     -0.08263070
C       2.26920728     -0.54371832     -0.14454307
O       3.24992663      0.36148067     -0.28327077
C       0.91280723      0.04603838     -0.07557944
C       0.72989005      1.43892356     -0.15557764
C      -0.55158243      1.99601023     -0.09679247
C      -1.66173097      1.16799297      0.04746457
C      -1.46956907     -0.21639888      0.13316463
N      -2.64017017     -1.05031434      0.29445095
O      -3.40332831     -1.13381489     -0.67817081
O      -2.82636276     -1.55705912      1.40886968
C      -0.20095472     -0.79674827      0.06779663
O      -0.08732512     -2.16057120      0.12731172
H       4.07766152     -0.16416863     -0.31354853
H       1.58492998      2.10380137     -0.26790994
H      -0.67930486      3.07474939     -0.16358629
H      -2.66070212      1.59669821      0.09351579
H       0.85971385     -2.42285770      0.08903569
