26
COC(Cc1ccccc1)OC
C       3.65544231     -0.91983208      0.18923864
O       2.50395506     -1.25256672     -0.57075267
C       1.37306730     -0.43871666     -0.23350302
C       0.17745368     -0.97955692     -1.03611091
C      -1.15616868     -0.49461839     -0.51612909
C      -1.75260252      0.65366884     -1.05399281
C      -2.97391892      1.11346486     -0.56009998
C      -3.60918630      0.43104998      0.47569941
C      -3.02383370     -0.71134054      1.01880078
C      -1.80194630     -1.17264755      0.52675910
O       1.61511008      0.91920176     -0.60967158
C       1.42739481      1.82203679      0.47028686
H       4.45155267     -1.62303883     -0.07029833
H       4.00036038      0.09053468     -0.04875206
H       3.45150153     -1.00766859      1.26074551
H       1.18187955     -0.54154702      0.84383109
H       0.18238693     -2.07759262     -1.02093394
H       0.27971660     -0.70307759     -2.09388337
H      -1.26268443      1.19855035     -1.85883082
H      -3.42948582      2.00408509     -0.98487917
H      -4.56173590      0.78830939      0.85786997
H      -3.52118280     -1.24519822      1.82436819
H      -1.35956581     -2.06759521      0.95877093
H       2.14286328      1.61284244      1.27140853
H       0.40563125      1.76438296      0.85601554
H       1.60399574      2.83686979      0.10404318
