74
CCCCCCCCCCCCCCCCCC(=O)NCCCN(C)C
C     -11.55173706      2.16973218      0.99163291
C     -11.10777115      0.78545477      0.54427769
C      -9.60548484      0.53980893      0.71009671
C      -8.74655862      1.39732474     -0.22329854
C      -7.24151418      1.16394600     -0.04863735
C      -6.79276053     -0.24213552     -0.45567041
C      -5.26859677     -0.39922409     -0.50399807
C      -4.60074089     -0.23079631      0.86332925
C      -3.11140556     -0.59316362      0.85841653
C      -2.26924765      0.32931493     -0.02690021
C      -0.76032129      0.11946280      0.14283859
C      -0.29169592     -1.27313147     -0.28772272
C       1.23394458     -1.40772276     -0.35612322
C       1.91680366     -1.27593596      1.00785116
C       3.44161524     -1.41188382      0.93557623
C       3.91026670     -2.82828651      0.58371887
C       5.43312014     -2.95862393      0.62890678
C       6.13050015     -2.27587535     -0.53402892
O       5.55024368     -1.86129386     -1.53042045
N       7.49619434     -2.18954227     -0.36250678
C       8.35869772     -1.55171476     -1.33659897
C       8.72957996     -0.11958895     -0.94764271
C       7.54064137      0.84907976     -1.04843870
N       7.82796754      2.26544688     -0.76684958
C       8.29557049      2.49581624      0.59535845
C       8.72354816      2.87247629     -1.74554184
H     -12.64253726      2.24837153      0.94114867
H     -11.24611166      2.36588630      2.02413101
H     -11.13492752      2.95265375      0.35176598
H     -11.64807730      0.03973698      1.13992147
H     -11.39944608      0.62768568     -0.50055437
H      -9.31555396      0.72031577      1.75221184
H      -9.41879624     -0.52093956      0.50793976
H      -8.94123049      2.45827247     -0.03032601
H      -9.02902708      1.20788004     -1.26591645
H      -6.70942416      1.90126592     -0.66243484
H      -6.96746436      1.36092949      0.99410734
H      -7.20645241     -0.98573885      0.23468933
H      -7.19200562     -0.47412748     -1.45066173
H      -5.03972235     -1.39784214     -0.89596663
H      -4.85708849      0.32394762     -1.21725151
H      -5.10718842     -0.87460877      1.59288836
H      -4.71630508      0.80058502      1.21547090
H      -2.74269371     -0.53802408      1.89016148
H      -2.99665926     -1.63404560      0.53495598
H      -2.49871796      1.37345692      0.21916720
H      -2.53425758      0.18547473     -1.08066187
H      -0.24038453      0.87704280     -0.45645054
H      -0.49083093      0.30172279      1.18942202
H      -0.69771016     -1.49647806     -1.28209242
H      -0.68822298     -2.03268284      0.39591500
H       1.63758473     -0.65739464     -1.04657172
H       1.46034409     -2.38876958     -0.78818462
H       1.69350505     -0.29126580      1.43370201
H       1.51151312     -2.02161550      1.70214189
H       3.83723802     -0.68757911      0.21435688
H       3.85369000     -1.13660948      1.91450094
H       3.48005174     -3.53317459      1.30555486
H       3.54382328     -3.11974626     -0.40634653
H       5.81944328     -2.55564674      1.57220479
H       5.69987402     -4.02138120      0.58351653
H       7.90845802     -2.53601916      0.49421004
H       7.89281791     -1.57530099     -2.32765104
H       9.26912286     -2.15909088     -1.38291195
H       9.53141485      0.20865714     -1.61840413
H       9.13500963     -0.11854543      0.07075328
H       6.74917473      0.52694408     -0.36075925
H       7.09930035      0.77715528     -2.05092746
H       9.29411862      2.08284170      0.77409927
H       7.60347869      2.05835332      1.32338376
H       8.33330227      3.57029766      0.80754357
H       8.77234620      3.95671253     -1.59383747
H       9.74377786      2.47905769     -1.68569731
H       8.35058701      2.71700920     -2.76388106
