23
CC(=O)c1cccc2ccccc12
C       3.27307964     -0.19838077     -0.76864091
C       2.21386870     -0.45279299      0.27254096
O       2.38781478     -1.25089906      1.18861628
C       0.94999162      0.32392646      0.17368441
C       1.06050745      1.71543079      0.02896664
C      -0.08421982      2.49755716     -0.06908103
C      -1.33972665      1.89502841     -0.02280606
C      -1.47368936      0.50457421      0.12440823
C      -2.75164595     -0.07768461      0.16482214
C      -2.91010099     -1.45543389      0.30451442
C      -1.79134324     -2.27073872      0.40560849
C      -0.51375855     -1.70785570      0.36723703
C      -0.31920686     -0.31177796      0.22970826
H       2.84161131      0.23369072     -1.67587848
H       3.73608617     -1.15038842     -1.04420300
H       4.03024874      0.47697223     -0.36272896
H       2.03387322      2.19935357      0.00957485
H      -0.00291560      3.57650310     -0.17551248
H      -2.22391312      2.52564144     -0.10016464
H      -3.64220753      0.54294018      0.08760049
H      -3.90599855     -1.88925664      0.33648750
H      -1.90589552     -3.34571938      0.51923987
H       0.33754010     -2.38069012      0.45657013
