34
CCN(CC)c1nc(Cl)nc(NC(C)C)n1
C      -2.73613842     -2.15462486      0.56615367
C      -2.56994933     -0.69835747      0.97602546
N      -2.28982738      0.14551141     -0.17694346
C      -3.39829371      0.70929138     -0.93566327
C      -3.62198280      2.16554444     -0.55571721
C      -1.00022452      0.25411140     -0.65701263
N      -0.78568613      0.96184782     -1.75396738
C       0.48150384      1.01092888     -2.13056279
Cl      0.80455213      1.92385444     -3.54025230
N       1.53030621      0.45606314     -1.55008420
C       1.21913607     -0.22798713     -0.46789405
N       2.20063870     -0.88527514      0.25515920
C       3.54161767     -0.31584199      0.26062687
C       3.59854908      0.93067970      1.14361393
C       4.50532381     -1.37830504      0.79061918
N      -0.01440519     -0.34747771      0.00914505
H      -2.97903064     -2.76770576      1.43966768
H      -1.82032221     -2.55246501      0.11756733
H      -3.54317498     -2.26950064     -0.16494060
H      -1.79088664     -0.60705482      1.74273741
H      -3.49496547     -0.36041212      1.45982127
H      -4.31827399      0.15026828     -0.72362900
H      -3.24301518      0.61612136     -2.01749297
H      -4.47821444      2.57257847     -1.10251530
H      -2.74695557      2.78033926     -0.78943429
H      -3.82329172      2.26457482      0.51622440
H       1.81051178     -1.11731292      1.16198726
H       3.86486560     -0.05989508     -0.75603159
H       3.27835309      0.70869294      2.16786662
H       2.94607042      1.72137877      0.75843611
H       4.61700047      1.33109326      1.18505769
H       5.53409280     -1.00326480      0.79880249
H       4.24475911     -1.68224420      1.81082776
H       4.47735752     -2.27515509      0.16180164
