22
Clc1ccc(-c2ccc(Cl)cc2)cc1
Cl     -5.26272026      0.10004581      0.27708194
C      -3.54534620      0.06739896      0.18666439
C      -2.92070096     -0.23401248     -1.02004316
C      -1.52419797     -0.25955533     -1.09194616
C      -0.73487632      0.01397491      0.03869416
C       0.73487701     -0.01396600     -0.03868867
C       1.42356156      0.75033805     -0.99667977
C       2.81993821      0.72540636     -1.07120758
C       3.54534530     -0.06740232     -0.18666707
Cl      5.26271856     -0.10005905     -0.27709566
C       2.88727354     -0.83390508      0.77071875
C       1.49085261     -0.80573573      0.84323844
C      -1.39021581      0.31496488      1.24539543
C      -2.78651133      0.34250956      1.32053186
H      -3.50990428     -0.45240987     -1.90658731
H      -1.05264432     -0.50839304     -2.04105159
H       0.87291939      1.38485973     -1.68896436
H       3.33044934      1.32757627     -1.81792527
H       3.45015411     -1.45648589      1.46091891
H       0.99227152     -1.42031007      1.59076664
H      -0.81254604      0.54385277      2.13925819
H      -3.27069767      0.58130755      2.26358790
