28
COC(=O)C1CC(=O)C(C(=O)OC)CC1=O
C      -3.16224794      1.94398882     -0.76197977
O      -2.77606323      0.78433708     -0.02133273
C      -1.67327658      0.15461577     -0.51044792
O      -1.04526341      0.49898369     -1.50228349
C      -1.31433658     -1.02800254      0.35299060
C      -0.81440057     -0.58229239      1.72312955
C       0.68264189     -0.74722647      1.88764874
O       1.16956986     -1.00897923      2.98790998
C       1.56248559     -0.53510915      0.67831580
C       1.61533334      0.91641510      0.27409696
O       0.84599653      1.77399753      0.68555392
O       2.62288771      1.12641788     -0.61618792
C       2.71893076      2.47431304     -1.08138969
C       1.11293270     -1.41706573     -0.48185431
C      -0.30420387     -1.92721657     -0.31936198
O      -0.62952815     -3.03144758     -0.75586250
H      -2.36196426      2.69072217     -0.74858761
H      -3.42361963      1.67205113     -1.78935427
H      -4.04538030      2.37407502     -0.28158183
H      -2.23548537     -1.61394388      0.47451939
H      -1.07723137      0.45459286      1.95654361
H      -1.28513152     -1.21516175      2.48637388
H       2.58394651     -0.81262817      0.97206765
H       3.53937090      2.52643136     -1.80230738
H       2.94340750      3.14984646     -0.25013231
H       1.79450733      2.77248497     -1.58597556
H       1.19367702     -0.91833656     -1.45314891
H       1.76244517     -2.30109800     -0.51736190
