45
CC(C)(C)NC[C@H](O)COc1nsnc1N1CCOCC1
C      -5.47772249      0.39704521      0.38345586
C      -4.39988346     -0.60526614     -0.06262505
C      -4.46223840     -1.86746549      0.81229438
C      -4.68546686     -1.00980255     -1.52158156
N      -3.05645456     -0.00025089     -0.06616330
C      -2.50534033      0.36273514      1.24681882
C      -1.17972583      1.13681508      1.08910674
O      -1.46286211      2.35586135      0.38159071
C      -0.10851679      0.30437297      0.36232555
O       1.20399990      0.80750380      0.66760629
C       1.77453672      1.50399308     -0.34687787
N       1.05060988      2.49614089     -0.87035628
S       2.04484366      3.15237324     -2.03749777
N       3.39479272      2.19896572     -1.85452595
C       3.13393434      1.33440852     -0.86199248
N       4.07056723      0.41583805     -0.42455272
C       3.71681072     -0.62536613      0.55689353
C       4.97136305     -1.30972914      1.12312438
O       5.81835466     -1.81691230      0.08540140
C       6.25549965     -0.73363303     -0.74599285
C       5.06950186     -0.03600998     -1.42203880
H      -5.43051355      1.32182329     -0.20319721
H      -6.48126918     -0.02408677      0.25086727
H      -5.37888659      0.66359001      1.44083559
H      -5.42410972     -2.37971830      0.69236907
H      -3.67479584     -2.57996631      0.54041018
H      -4.35404579     -1.63332570      1.87688461
H      -3.94381080     -1.72883647     -1.88988290
H      -4.66932952     -0.14096515     -2.19059651
H      -5.67222503     -1.47798078     -1.61628819
H      -3.07269116      0.85939537     -0.62611309
H      -3.20728325      1.00844622      1.78449063
H      -2.32237793     -0.53264523      1.84971143
H      -0.81336605      1.42767033      2.08031699
H      -0.60817678      2.67946768      0.02735435
H      -0.12154905     -0.72262235      0.74483541
H      -0.28645309      0.25206142     -0.72011086
H       3.18449498     -0.20111353      1.41286154
H       3.07905252     -1.37321315      0.07041490
H       4.67744441     -2.15361727      1.75555688
H       5.54724002     -0.61508465      1.74693855
H       6.92476107     -1.14801342     -1.50666803
H       6.83662922     -0.02700022     -0.14116598
H       4.57988702     -0.73701936     -2.10987918
H       5.46477054      0.80113691     -2.00871053
