22
O=[N+]([O-])O[C@H]1CO[C@H]2[C@@H]1OC[C@H]2O
O       3.72341317     -2.01137135      1.50805891
N       3.17012499     -1.44797352      0.56697884
O       3.49252899     -1.38557181     -0.61959327
O       1.97653190     -0.79127833      0.94965775
C       1.34871793     -0.08750913     -0.12506442
C       0.50580275     -1.02813419     -0.98084391
O      -0.76999084     -1.17864057     -0.32461542
C      -0.89451697     -0.12963769      0.66276823
C       0.28383919      0.80634371      0.47989543
O      -0.12065709      1.83017741     -0.45280124
C      -1.52262838      1.66112562     -0.73393744
C      -2.08275995      0.75323134      0.34750389
O      -3.21228352      0.01209592     -0.08417616
H       2.06963692      0.49278530     -0.71292662
H       0.31303611     -0.59630883     -1.96858839
H       0.93918087     -2.02340457     -1.10816016
H      -0.94747087     -0.60620353      1.64576468
H       0.58328186      1.29219388      1.41398598
H      -1.62905107      1.22646055     -1.73409035
H      -2.01137409      2.64002315     -0.74326529
H      -2.35583823      1.34928511      1.22547875
H      -2.85952365     -0.77768846     -0.54276320
