37
Nc1ccc(S(=O)(=O)Nc2ncc3c(n2)CCCC3)cc1
N       4.48999556      0.54311919     -2.44453404
C       3.83457509      0.81778927     -1.23832943
C       4.16996639      0.10966793     -0.07925471
C       3.44618504      0.28899943      1.10254046
C       2.34440357      1.14692508      1.10929300
S       1.44292147      1.39308269      2.61931346
O       0.46355626      2.44266844      2.43014269
O       2.43571426      1.51203253      3.67036598
N       0.68224118     -0.05925185      2.87661510
C      -0.49131464     -0.30108281      2.17472881
N      -1.38417758     -1.01157949      2.86716785
C      -2.46978823     -1.39904247      2.17276908
C      -2.65524490     -1.14388340      0.82731576
C      -1.63885729     -0.43021420      0.21050281
N      -0.53302283     -0.03020778      0.87079332
C      -1.68459057     -0.12132604     -1.26318903
C      -3.09233258     -0.21962036     -1.84881237
C      -3.76229704     -1.51751891     -1.40861469
C      -3.90416929     -1.56315561      0.11337571
C       1.96800487      1.82552639     -0.05071875
C       2.70017549      1.63626869     -1.22576904
H       5.44551250      0.22078764     -2.32659514
H       4.41894778      1.29074096     -3.12773018
H       5.00445741     -0.58673510     -0.08639301
H       3.73700793     -0.24707975      2.00244071
H       0.63038406     -0.32968685      3.85094754
H      -3.21125058     -1.94437583      2.75109621
H      -1.28593748      0.88402061     -1.44192540
H      -1.02517057     -0.83194297     -1.77656205
H      -3.69572553      0.63502564     -1.51746263
H      -3.04051998     -0.17295239     -2.94226919
H      -4.74993507     -1.61137036     -1.87378279
H      -3.16352097     -2.37104698     -1.75152094
H      -4.71533494     -0.89087180      0.41974904
H      -4.18605034     -2.57945368      0.41296514
H       1.09842462      2.47833260     -0.05484211
H       2.37676691      2.13741151     -2.13427286
