28
CCS(=O)CCSP(=S)(OC)OC
C       4.68935856      0.10627531     -1.43449452
C       3.49083867      0.43117588     -0.56512142
S       2.43435344     -1.03814505     -0.35868362
O       1.77748963     -1.31663217     -1.67851340
C       1.19261143     -0.21954423      0.70126697
C       0.05245903     -1.18457880      0.99177975
S      -1.17534796     -0.43264580      2.09796755
P      -2.52305992      0.53828917      0.79435825
S      -3.95020630      1.61398281      1.57490221
O      -1.57627018      1.39496738     -0.21384060
C      -2.15302678      2.01238902     -1.34882562
O      -3.05874055     -0.59299115     -0.24329550
C      -3.96692045     -1.57322776      0.22072749
H       5.29295470     -0.69519014     -0.99533839
H       5.32690067      0.98897391     -1.54541230
H       4.38045822     -0.21576794     -2.43463234
H       2.89654698      1.22964397     -1.01965437
H       3.82213945      0.75558201      0.42593129
H       1.69983326      0.08301337      1.62346990
H       0.84295327      0.67386694      0.17738103
H       0.43489711     -2.08501553      1.48492255
H      -0.44340907     -1.50729161      0.07068081
H      -1.34960513      2.28831700     -2.03684341
H      -2.83571427      1.33422529     -1.86678259
H      -2.68268286      2.92102380     -1.05226865
H      -3.93104398     -2.42870450     -0.45867438
H      -3.70589364     -1.91406021      1.22568644
H      -4.98187334     -1.16793098      0.21802200
