22
c1ccc(Cn2ccnc2)cc1
C       3.15719069      0.84080988     -0.45475413
C       2.32731924      0.57959309     -1.54284515
C       1.12220214     -0.09914620     -1.35617289
C       0.73385246     -0.52330780     -0.07610228
C      -0.56758172     -1.25577445      0.12903177
N      -1.71554425     -0.38570954     -0.05666615
C      -2.61516406     -0.43569118     -1.08615066
C      -3.54249670      0.53692808     -0.79276509
N      -3.23499807      1.16323660      0.38718452
C      -2.12951035      0.58923500      0.80644949
C       1.57813311     -0.25365007      1.01138059
C       2.78321927      0.42487802      0.82132432
H       4.09414270      1.37207569     -0.60102618
H       2.61677988      0.90887005     -2.53764883
H       0.48439587     -0.28786292     -2.21748864
H      -0.64059654     -1.67502583      1.13947790
H      -0.64592690     -2.09116104     -0.57651535
H      -2.52845170     -1.12880709     -1.91066613
H      -4.41717868      0.81665570     -1.36547193
H      -1.59547407      0.83879785      1.71413577
H       1.30524816     -0.56699029      2.01688625
H       3.43043951      0.63204645      1.66993223
