12
Brc1cccc(Br)c1Br
Br      1.51158381     -2.86833866     -0.16687730
C       0.62240186     -1.18753408     -0.06903795
C      -0.77792733     -1.22929902     -0.05121937
C      -1.51598156     -0.05084946      0.01900316
C      -0.85701384      1.17445925      0.07171606
C       0.54297328      1.22662329      0.05443337
Br      1.31971583      2.96330715      0.13138290
C       1.29856883      0.04355683     -0.01627523
Br      3.20725363      0.10757840     -0.04020356
H      -1.30408404     -2.18102198     -0.09195595
H      -2.60292302     -0.08730748      0.03262251
H      -1.44456747      2.08882577      0.12641138
