17
O=S(=O)(CCCl)CCCl
O      -0.59220163     -1.91797791     -1.02639026
S      -0.12001738     -0.56752663     -0.79069568
O      -0.12632439      0.41370059     -1.85726863
C       1.53805489     -0.68945167     -0.15358266
C       2.20292219      0.66506068     -0.07138599
Cl      3.80801117      0.51118011      0.68254716
C      -1.06324095      0.09227042      0.56647817
C      -2.52330334      0.17596240      0.17922819
Cl     -3.46700264      0.85399914      1.52880734
H       2.08723227     -1.34838215     -0.83509624
H       1.47600733     -1.18456449      0.82089247
H       2.34419794      1.10579058     -1.06267262
H       1.62657422      1.36831631      0.53515840
H      -0.66170418      1.08128581      0.80408621
H      -0.91701115     -0.57374123      1.42263639
H      -2.67426169      0.82358632     -0.68968574
H      -2.93793266     -0.80950828     -0.05305652
