20
CCCCN(C)N=O
C       3.16161023      0.50949241      0.15546768
C       1.92746979     -0.30749778     -0.19256344
C       0.64364790      0.40521617      0.23709198
C      -0.59869965     -0.42913881     -0.11839171
N      -1.85140828      0.19521823      0.34927840
C      -2.94199520     -0.78968078      0.28275304
N      -2.12780320      1.31860773     -0.28091848
O      -2.99632320      1.96093142      0.31963554
H       4.06698145     -0.01855388     -0.15977430
H       3.14309131      1.48181549     -0.34709591
H       3.22679575      0.68130259      1.23461290
H       1.99382827     -1.28504798      0.29901005
H       1.90862054     -0.48805821     -1.27363692
H       0.59886221      1.38571795     -0.25233794
H       0.66959265      0.58317154      1.31960519
H      -0.63091962     -0.61576339     -1.20114022
H      -0.48067578     -1.40721584      0.36741258
H      -3.87434407     -0.38923765      0.69980558
H      -3.13941421     -1.11751957     -0.74550138
H      -2.69891690     -1.67375961      0.88396659
