17
O=c1cnc2[nH]c(=O)[nH]c(=O)c2[nH]1
O      -3.64858166      0.80778637      0.38280166
C      -2.51765326      0.38298569      0.22411050
C      -2.29037439     -1.08046725     -0.12413386
N      -1.11585058     -1.61307794     -0.30993631
C      -0.04123762     -0.76898830     -0.17429830
N       1.17908849     -1.33537786     -0.37033335
C       2.36247059     -0.66266559     -0.27991848
O       3.44385766     -1.20957328     -0.46396048
N       2.26748448      0.66555081      0.03012339
C       1.09847755      1.34008652      0.24820787
O       1.05637616      2.53510219      0.52481125
C      -0.14304835      0.53488329      0.13052770
N      -1.36652411      1.11885124      0.33076828
H      -3.20772240     -1.68308814     -0.21284676
H       1.21351789     -2.32054695     -0.59835119
H       3.13049653      1.18259622      0.10213125
H      -1.42077697      2.10594297      0.56029684
