19
O=[N+]([O-])c1cc([N+](=O)[O-])c([O-])c([N+](=O)[O-])c1[O-].[Pb+2]
O       3.42534345      0.68232494      0.88495323
N       2.76415642     -0.24449232      0.37911609
O       3.45659462     -1.38078549      0.01334700
C       1.34333118     -0.11610231      0.19443133
C       0.80581598      1.13056300      0.03134271
C      -0.53474709      1.28902343     -0.14918814
N      -1.15924951      2.55879862     -0.33013262
O      -2.28757087      2.81811858      0.05751238
O      -0.44188378      3.54046241     -0.97515573
C      -1.35073110      0.16823492     -0.16462374
O      -2.71940429      0.26909953     -0.34135554
C      -0.81085553     -1.11150534      0.00160068
N      -1.63654876     -2.25687971      0.00502378
O      -2.05098090     -2.77584425     -1.04503085
O      -1.97705824     -2.81188851      1.21404184
C       0.55430587     -1.25174704      0.18350285
O       1.15935622     -2.50163256      0.35669330
Pb      0.00000000      0.00000000      0.00000000
H       1.46012634      1.99425209      0.04393269
