29
O=C([O-])c1ccc[n+](Cc2ccccc2)c1.[Cl-].[Na+]
O       3.51673379      1.62371415      2.32388994
C       3.89934808      1.36123895      1.14534507
O       4.96763979      1.71781343      0.57645112
C       2.95322333      0.52290720      0.34599524
C       3.20339844      0.14745157     -0.97460740
C       2.27832208     -0.63075833     -1.65578672
C       1.11645812     -1.02162496     -1.00414803
N       0.88047959     -0.65072000      0.27574311
C      -0.35535068     -1.08498275      0.95997229
C      -1.57805096     -0.44932559      0.34734183
C      -2.61003999     -1.24812994     -0.16990546
C      -3.74140818     -0.66067620     -0.73838344
C      -3.85660220      0.72649233     -0.79132619
C      -2.84420712      1.52972524     -0.27200107
C      -1.71155032      0.94750242      0.29824358
C       1.77584984      0.10416176      0.94897997
Cl      0.00000000      0.00000000      0.00000000
Na      0.00000000      0.00000000      0.00000000
H       4.12556742      0.47229337     -1.45855531
H       2.46595993     -0.92403956     -2.68473639
H       0.36330198     -1.62718490     -1.49798245
H      -0.38040941     -2.17869153      0.88060128
H      -0.29681642     -0.83360400      2.02464470
H      -2.55272743     -2.33465621     -0.13466729
H      -4.53939640     -1.28342889     -1.13724731
H      -4.73973089      1.18370597     -1.23214179
H      -2.93947681      2.61326328     -0.30818669
H      -0.94025048      1.60276152      0.70190519
H       1.53973490      0.37479167      1.97612819
