58
CCCCN(CCCC)SN(C)C(=O)Oc1cccc2c1OC(C)(C)C2
C      -6.29490869      0.12107143      0.14338416
C      -5.78359712     -0.75267581     -0.99163142
C      -4.26917240     -0.64768677     -1.20266783
C      -3.46272935     -1.24789673     -0.04052312
N      -2.01159162     -1.33693966     -0.29335493
C      -1.38820676     -0.04141414     -0.62821328
C      -1.56640022      1.11598993      0.36757974
C      -0.97723215      0.85321206      1.75293472
C      -1.08679370      2.08300866      2.64436502
S      -1.13697298     -2.48499561      0.54728912
N       0.15797730     -2.91045116     -0.47616380
C      -0.16605767     -3.54452464     -1.73640870
C       1.47212970     -2.52423474     -0.21412028
O       2.39707179     -2.72637123     -1.00052117
O       1.62427866     -1.91493637      1.03220822
C       2.87639059     -1.33997233      1.21891106
C       3.80606477     -1.96786724      2.04563848
C       5.05437912     -1.36655686      2.26611037
C       5.36706138     -0.13642658      1.67634678
C       4.41386151      0.47765788      0.87955357
C       3.18450552     -0.11427101      0.65856451
O       2.34770176      0.61418722     -0.14138421
C       3.05405858      1.85751877     -0.40788985
C       2.27755710      2.98349116      0.28384238
C       3.04657319      2.07023676     -1.92357419
C       4.49978061      1.75216953      0.13437543
H      -5.89884515     -0.20304621      1.11053603
H      -7.38714708      0.06631134      0.19809472
H      -6.01522033      1.16770169     -0.01031660
H      -6.06560024     -1.79589641     -0.80407337
H      -6.28631319     -0.45208312     -1.91889425
H      -4.00967949      0.40536096     -1.35877434
H      -4.01632769     -1.18146843     -2.12811792
H      -3.85669005     -2.25878025      0.12763602
H      -3.64845068     -0.69434652      0.88594427
H      -0.31372287     -0.17774988     -0.80995929
H      -1.77413805      0.28340472     -1.60223927
H      -2.62425417      1.38338553      0.45860271
H      -1.07225106      1.99564651     -0.06159669
H       0.07978024      0.57239438      1.66388946
H      -1.50189375      0.02342696      2.24069691
H      -0.53170853      2.92595364      2.22147316
H      -2.13188645      2.38369832      2.76880642
H      -0.67469480      1.86685819      3.63536545
H      -0.44629221     -2.77387586     -2.46128497
H       0.69836270     -4.08867805     -2.12714985
H      -0.99139615     -4.25237762     -1.61082161
H       3.57086856     -2.92013665      2.50921015
H       5.78626941     -1.86268049      2.89822885
H       6.33819247      0.32016320      1.84068387
H       2.74376815      3.95771664      0.10999588
H       1.24530423      3.02351209     -0.07915485
H       2.22015139      2.81459849      1.36568564
H       3.54117968      3.00420015     -2.20001217
H       3.55630524      1.24574701     -2.43285459
H       2.02363423      2.08651574     -2.31175409
H       5.23871494      1.67219648     -0.66924209
H       4.76825180      2.59100494      0.78624640
