23
O=C(O)CN1CCCCS1(=O)=O
O       2.80045734      1.18291490     -1.05397534
C       2.70554647      0.06063027     -0.57904357
O       3.36534389     -0.97630675     -1.12926732
C       1.86967198     -0.32608156      0.61968098
N       0.39739703     -0.21452024      0.41643199
C      -0.06777433      1.18781095      0.26572033
C      -1.58352509      1.24814890      0.45131753
C      -2.33434849      0.41848880     -0.59141718
C      -1.95594886     -1.05451165     -0.53306310
S      -0.20206509     -1.28805599     -0.76200165
O       0.14616311     -2.62957854     -0.35087009
O       0.17605511     -0.77858126     -2.06164550
H       3.75213696     -0.61051266     -1.95217865
H       2.17549642      0.30988286      1.45881656
H       2.11684018     -1.34776645      0.93079931
H       0.40278347      1.81166504      1.03428712
H       0.21819708      1.59436995     -0.71008081
H      -1.91143826      2.29175158      0.38174800
H      -1.84789091      0.89472720      1.45581287
H      -3.41288572      0.51999807     -0.42579085
H      -2.12543145      0.81821127     -1.59109511
H      -2.46262120     -1.61812344     -1.32222939
H      -2.22215964     -1.49456126      0.43341755
