39
Cn1c(=O)c2c(ncn2COC(=O)C(C)(C)C)n(C)c1=O
C       2.24205653     -3.27194555      0.52102603
N       2.41691406     -1.84334750      0.34591391
C       1.38946098     -1.12597355     -0.27335105
O       0.34765709     -1.62329647     -0.68989078
C       1.67873572      0.26055167     -0.38559781
C       2.84199913      0.81932100      0.04761871
N       2.87558536      2.16280229     -0.17522703
C       1.71596475      2.43119249     -0.74227577
N       0.95412723      1.30211650     -0.89341995
C      -0.37014495      1.23907083     -1.48060280
O      -1.28774829      0.96407738     -0.42714912
C      -2.54819482      0.72068896     -0.87686301
O      -2.88773058      0.83929788     -2.04693337
C      -3.47083930      0.30354019      0.26986856
C      -4.86737533     -0.01471131     -0.28660668
C      -3.58123416      1.45553965      1.27673940
C      -2.90734263     -0.95096591      0.95143550
N       3.83270499      0.06764230      0.63097473
C       5.06261901      0.70063654      1.07104234
C       3.64258881     -1.30547121      0.79265661
O       4.50443414     -2.02818979      1.30175590
H       2.98973432     -3.79431731     -0.08475798
H       2.40723150     -3.52954552      1.57237232
H       1.24582157     -3.61182215      0.22732104
H       1.38337449      3.41276033     -1.05689658
H      -0.36015365      0.44810912     -2.23901278
H      -0.59037836      2.20993384     -1.93783874
H      -4.82599428     -0.82638252     -1.02227740
H      -5.55346771     -0.32057911      0.51115841
H      -5.30432657      0.85738344     -0.78685238
H      -4.27820081      1.21000133      2.08571345
H      -3.93626910      2.37128666      0.79010642
H      -2.61202214      1.68625131      1.73327010
H      -3.58039043     -1.31165024      1.73720106
H      -2.76578006     -1.76207408      0.22787156
H      -1.93346991     -0.75659814      1.41498391
H       5.55284194      1.16558270      0.20982170
H       5.75335840     -0.01791394      1.51986706
H       4.82385307      1.46699789      1.81529041
