46
CCCCCCS(=O)(=O)NS(=O)(=O)CCCCCC
C      -4.32776522      1.84056843      2.10351985
C      -5.26677169      1.26672313      1.05399991
C      -4.68903686      1.28971543     -0.36335521
C      -3.37957708      0.51765289     -0.55824121
C      -3.50225257     -0.97278798     -0.23103613
C      -2.26478139     -1.77926981     -0.62188301
S      -0.83750396     -1.41121445      0.40150352
O      -1.22385679     -1.56328161      1.78926723
O      -0.20726612     -0.19286999     -0.05365366
N       0.17951846     -2.65931263      0.11227178
S       1.04684247     -2.86453863     -1.25538247
O       0.18040666     -2.62168064     -2.38732910
O       1.69920795     -4.14953345     -1.10615170
C       2.31649162     -1.59680839     -1.20935811
C       3.08438014     -1.57581236      0.10730112
C       4.25286731     -0.58683596      0.10533997
C       3.80642349      0.87427934      0.01509804
C       4.99824401      1.82535566      0.13099736
C       4.56172728      3.27888468      0.03928614
H      -3.43752661      1.21717167      2.22905791
H      -4.83448331      1.89213716      3.07258047
H      -4.00821308      2.85215937      1.83416416
H      -5.54900007      0.24607113      1.33447826
H      -6.19308676      1.85403637      1.05689573
H      -4.52228614      2.33260708     -0.66089162
H      -5.44361356      0.89070193     -1.05263323
H      -2.59325884      0.97806382      0.04815204
H      -3.07110557      0.63181847     -1.60492799
H      -4.36092881     -1.38390519     -0.77594037
H      -3.70795153     -1.10830803      0.83621103
H      -1.99946089     -1.59480442     -1.66513728
H      -2.47779917     -2.84488922     -0.48632495
H       0.31602495     -3.32922566      0.85877852
H       2.99217688     -1.82153334     -2.04220502
H       1.83485113     -0.64088342     -1.42453991
H       3.48229575     -2.57751063      0.31045985
H       2.41087705     -1.33842044      0.93862038
H       4.93209391     -0.81994303     -0.72365083
H       4.82362108     -0.73027851      1.03126340
H       3.08643073      1.08903783      0.81404929
H       3.29678691      1.05377745     -0.93811205
H       5.72073191      1.61556956     -0.66632356
H       5.51229869      1.66448063      1.08575376
H       5.42886605      3.94117154      0.12497524
H       3.86186368      3.52969586      0.84279573
H       4.07249787      3.48196836     -0.91871408
