35
Cc1cccc(C)c1N(Cn1cccn1)C(=O)CCl
C      -0.10166670     -1.04811464      1.97695279
C      -1.15890163     -0.72073362      0.95647246
C      -2.39219714     -1.38283670      1.06214854
C      -3.39440364     -1.18253155      0.11685913
C      -3.17667093     -0.32415814     -0.95692223
C      -1.95764832      0.35592750     -1.09627800
C      -1.77505826      1.24335058     -2.29870484
C      -0.94252961      0.14600047     -0.13689908
N       0.29701934      0.81486023     -0.28151254
C       1.25822521      0.23969516     -1.22537753
N       2.22955488     -0.68659880     -0.64151965
C       3.37854927     -0.36070127      0.02651585
C       3.97730970     -1.55024922      0.36608783
C       3.12103535     -2.53945358     -0.14822915
N       2.05626969     -2.02210864     -0.76561574
C       0.64293998      1.96197282      0.41987337
O       1.75289571      2.48779863      0.27997218
C      -0.38338018      2.59640307      1.34623739
Cl     -1.23420050      3.88309772      0.46697339
H      -0.55678188     -1.20631544      2.96111123
H       0.42518999     -1.96204254      1.68821624
H       0.62658976     -0.24298867      2.09999310
H      -2.57317494     -2.07585730      1.88184577
H      -4.34215319     -1.70709817      0.21004598
H      -3.96763149     -0.19016735     -1.69248392
H      -1.34122518      0.66876194     -3.12286335
H      -2.73522114      1.65452049     -2.62922156
H      -1.12774107      2.09745053     -2.08242851
H       0.73659198     -0.29942481     -2.02512922
H       1.83892784      1.04012535     -1.69923530
H       3.66248979      0.66891094      0.19921340
H       4.90441930     -1.68404670      0.90447265
H       3.22873390     -3.61548068     -0.10044877
H      -1.11683500      1.89654500      1.74434248
H       0.14067912      3.04548738      2.19553561
