40
O=C(O)c1ccccc1C(c1ccc(O)cc1)c1ccc(O)cc1
O       0.30005701     -1.83492920      2.82599784
C       0.03378926     -2.59361352      1.91467145
O      -0.82544215     -3.61595035      2.08430771
C       0.55200580     -2.54679679      0.52242764
C       0.85445083     -3.77255961     -0.09864897
C       1.35322957     -3.80677150     -1.39851721
C       1.55075488     -2.61852742     -2.09040242
C       1.25077134     -1.39522582     -1.48548986
C       0.75467719     -1.32587397     -0.16529311
C       0.37825608      0.02820949      0.46312237
C       1.11530602      1.24189751     -0.13178616
C       0.52601025      2.11240396     -1.06597356
C       1.24271620      3.19116401     -1.59301961
C       2.55713165      3.40278758     -1.19389663
O       3.29036998      4.44214440     -1.68452000
C       3.16624700      2.55486133     -0.27954607
C       2.45069616      1.47896702      0.24855418
C      -1.13752275      0.23426553      0.59564041
C      -2.04552524     -0.20170822     -0.38566093
C      -3.41610417      0.01926039     -0.23543449
C      -3.88945162      0.68097450      0.88986305
O      -5.23486364      0.87598276      0.99407217
C      -3.01451752      1.12904955      1.87225468
C      -1.64341072      0.90785732      1.72285423
H      -1.13418795     -3.51384761      3.00846458
H       0.70271902     -4.70966925      0.43329389
H       1.58428860     -4.75873175     -1.86946831
H       1.93609291     -2.63855230     -3.10726149
H       1.40856068     -0.49154155     -2.07142094
H       0.76465909     -0.00630828      1.48989314
H      -0.49945801      1.96506411     -1.39634553
H       0.75851023      3.84803320     -2.30865431
H       2.73076983      4.95520545     -2.28995174
H       4.19499972      2.72878563      0.02249952
H       2.94352972      0.81969584      0.96111727
H      -1.69777225     -0.71555087     -1.27888836
H      -4.11147462     -0.32407451     -0.99607519
H      -5.41380550      1.34403891      1.82592413
H      -3.37367207      1.64854214      2.75470107
H      -0.96339080      1.26104185      2.49659555
