18
O=C(O)C=CCCC(=O)O
O      -3.30173311     -0.18126241     -1.69365365
C      -2.83542002     -1.05180223     -0.98506912
O      -3.54995158     -2.11721979     -0.59092395
C      -1.47454225     -1.12619592     -0.43487131
C      -0.57855810     -0.16442500     -0.70532487
C       0.83218717     -0.16974014     -0.18863052
C       1.10414959      1.04038866      0.70106392
C       2.51864361      1.03108594      1.20911813
O       3.37779968      0.19316192      0.99758818
O       2.78288652      2.10463345      1.97963112
H      -4.42621068     -1.97528428     -1.00555423
H      -1.23883410     -1.98160387      0.18656273
H      -0.86264485      0.67176570     -1.34421863
H       1.51665107     -0.16509187     -1.04599868
H       1.03811141     -1.09376535      0.36645556
H       0.94868737      1.96665854      0.13600970
H       0.42965514      1.03260261      1.56496410
H       3.71912314      1.98609404      2.24517629
