6
[K+].[K+].[O-2].[O-2].[O-2].[Ti+4]
K       0.00000000      0.00000000      0.00000000
K       0.00000000      0.00000000      0.00000000
O       0.00000000      0.00000000      0.00000000
O       0.00000000      0.00000000      0.00000000
O       0.00000000      0.00000000      0.00000000
Ti      0.00000000      0.00000000      0.00000000
