62
CCCCCCCCCCCC(=O)NCCC[N+](C)(C)CC(=O)[O-]
C      -9.07822995      0.86327864     -1.24764676
C      -8.73344379      2.11651938     -0.45746129
C      -7.24165260      2.45909388     -0.46996604
C      -6.37007689      1.39842670      0.20853245
C      -4.90387302      1.83676534      0.25454922
C      -3.98942466      0.84024394      0.97488490
C      -3.84702984     -0.49026540      0.23102884
C      -2.89110973     -1.47206709      0.91619467
C      -1.43362839     -1.01726824      1.04472560
C      -0.79598325     -0.61745872     -0.28942660
C       0.70163109     -0.34866971     -0.15256005
C       1.52955623     -1.61498850     -0.02362164
O       1.09849272     -2.74635921     -0.22376637
N       2.84200280     -1.36649097      0.30092909
C       3.78858565     -2.43641778      0.51595503
C       5.21264323     -1.91048558      0.66760283
C       5.69226091     -1.25123857     -0.62691577
N       6.84760937     -0.25366134     -0.41806241
C       7.20138730      0.33747239     -1.78527783
C       8.06118762     -0.88937126      0.19960640
C       6.35841472      0.96231937      0.48511134
C       5.00041847      1.61738255      0.10169982
O       5.09362332      2.54937126     -0.74043086
O       3.98428430      1.04644677      0.59843994
H      -8.69165829      0.92156157     -2.27000891
H     -10.16392856      0.74207573     -1.30193910
H      -8.66937268     -0.03438527     -0.77234184
H      -9.07943506      1.99963931      0.57516580
H      -9.28836243      2.96019231     -0.88294247
H      -6.90680688      2.60664990     -1.50453142
H      -7.10418250      3.41825627      0.04514151
H      -6.73193483      1.22169669      1.22764285
H      -6.45410700      0.45381430     -0.33679348
H      -4.53705799      2.00072391     -0.76568116
H      -4.83800588      2.79996451      0.77464712
H      -3.00468848      1.30843825      1.08116134
H      -4.36541381      0.65981792      1.98874575
H      -4.82581116     -0.97964048      0.16443147
H      -3.52533638     -0.30798643     -0.80085583
H      -2.91149017     -2.41708576      0.35893732
H      -3.27282883     -1.69931112      1.91972308
H      -1.36366550     -0.18086209      1.74999628
H      -0.86555958     -1.84170725      1.49411774
H      -1.26874826      0.29987956     -0.65153771
H      -0.97770544     -1.39158196     -1.04222285
H       0.89503996      0.30085411      0.70888786
H       1.04874306      0.17135708     -1.05265319
H       3.10726472     -0.38938453      0.52994980
H       3.48637691     -2.96870510      1.42438783
H       3.71630608     -3.14230786     -0.31921164
H       5.87688745     -2.74845545      0.91308243
H       5.23768460     -1.22924710      1.52255491
H       6.06727498     -2.02287874     -1.31228997
H       4.89602921     -0.71441273     -1.15224363
H       6.30174579      0.75664004     -2.24375261
H       7.96558239      1.10748167     -1.64319217
H       7.59732650     -0.47066731     -2.41041135
H       7.81144196     -1.23504674      1.20663995
H       8.86019521     -0.14177733      0.25085007
H       8.37177024     -1.73159034     -0.42632015
H       6.31818752      0.59534132      1.51721278
H       7.16059757      1.71007130      0.44329917
