48
CCN(CCO)C(=O)c1cc2ccc(C)nn2c1-c1cccc(C(F)(F)F)c1
C       1.98558587     -1.83135246      1.52575341
C       2.36371059     -0.46842042      0.96459977
N       2.51554322     -0.46159527     -0.49694563
C       3.63954726     -1.22121710     -1.06727337
C       4.94975196     -0.42017212     -1.12417224
O       5.00756813      0.46567200     -2.23901001
C       1.89603727      0.47907182     -1.32993296
O       2.31738495      0.70518621     -2.46482634
C       0.76163518      1.23430020     -0.81531158
C       0.71246175      2.64936243     -0.67181410
C      -0.52780755      2.97487450     -0.17790009
C      -1.14132795      4.19838498      0.16887047
C      -2.40059075      4.19082410      0.61782089
C      -3.08014462      2.87118115      0.72413407
C      -4.50534071      2.87033066      1.21879365
N      -2.54860793      1.73028214      0.41094140
N      -1.26095423      1.81168570     -0.03951240
C      -0.48848598      0.73055865     -0.44772802
C      -0.99847322     -0.64663448     -0.50717005
C      -0.81862404     -1.41787514     -1.66275853
C      -1.28047794     -2.73412323     -1.72098359
C      -1.93195766     -3.29533154     -0.62374239
C      -2.13534015     -2.54197921      0.54079592
C      -2.81769795     -3.14097654      1.74342713
F      -3.64726455     -2.26751782      2.38048517
F      -1.92567562     -3.56156784      2.68479414
F      -3.58343002     -4.22910288      1.44530502
C      -1.65685094     -1.22121076      0.58903364
H       2.80851522     -2.54621908      1.43604797
H       1.12200204     -2.25299926      1.00608048
H       1.74206766     -1.74610494      2.58958068
H       3.31633439     -0.14187579      1.39737181
H       1.62116942      0.26352044      1.28909716
H       3.78600950     -2.12715864     -0.47308514
H       3.35754689     -1.53516724     -2.07996182
H       5.10343689      0.16550516     -0.21262671
H       5.79262863     -1.11036963     -1.22977915
H       4.08787088      0.70448347     -2.48676654
H       1.50991376      3.34340422     -0.90686947
H      -0.59095788      5.12799892      0.06313266
H      -2.93017609      5.09217152      0.89448946
H      -5.17633785      2.70081127      0.37235037
H      -4.76400318      3.81961702      1.69555631
H      -4.63952835      2.06543407      1.94717712
H      -0.32431424     -0.99656683     -2.53633958
H      -1.13322865     -3.31869382     -2.62608962
H      -2.28584814     -4.32365871     -0.68263785
H      -1.80327528     -0.63676984      1.49729156
