27
NS(=O)(=O)c1nnc(NS(=O)(=O)c2c(F)c(F)c(F)c(F)c2F)s1
N       6.29416874     -0.09839128     -0.51519300
S       5.00966315      0.93755252     -0.17211782
O       5.06484851      1.16109506      1.25495035
O       5.11634784      2.01913006     -1.12605019
C       3.48673248      0.12649894     -0.50014789
N       3.34041691     -1.09375704     -0.97824857
N       2.00258580     -1.41291997     -1.13060702
C       1.22568031     -0.43736135     -0.72216801
N      -0.21970728     -0.55279414     -0.86318384
S      -0.93032714     -1.02527273      0.60315364
O      -1.11702973     -2.45716853      0.55107601
O      -0.22730019     -0.38414849      1.68971674
C      -2.52524532     -0.31302084      0.47603226
C      -3.06839769      0.43232280      1.51436946
F      -2.40477659      0.63332501      2.65849974
C      -4.34366469      0.97636034      1.38248552
F      -4.86705158      1.69699452      2.38346916
C      -5.07645950      0.77318549      0.22079517
F      -6.30183760      1.30032060      0.09752379
C      -4.53579053      0.02030530     -0.81148729
F      -5.23727595     -0.18078373     -1.93489291
C      -3.26306824     -0.52539688     -0.68372981
F      -2.76126370     -1.25149469     -1.69297545
S       2.03448365      0.97888355     -0.21498576
H       6.77883690     -0.33901051      0.35067163
H       6.90841485      0.33612014     -1.20489975
H      -0.38298342     -1.32057413     -1.52271317
