26
C=C(C)C1CC=C(C)CC1
C      -2.79779909      1.04605322     -0.82515133
C      -2.22185532      0.09605287     -0.06789620
C      -3.06903804     -0.75071622      0.84929114
C      -0.72854015     -0.23459906     -0.07272459
C      -0.05613041      0.22130586      1.24153115
C       1.44437613      0.12425121      1.22158891
C       2.16527926     -0.07382766      0.10424937
C       3.66002293     -0.20936200      0.13132595
C       1.51571525     -0.17194445     -1.25307325
C       0.06489217      0.32066171     -1.27028028
H      -3.86803594      1.22918599     -0.78592754
H      -2.23272900      1.67749615     -1.50203556
H      -2.79197172     -0.58473766      1.89466741
H      -2.93720852     -1.81233751      0.61621324
H      -4.13623065     -0.52369271      0.75202289
H      -0.65065569     -1.33068612     -0.13365447
H      -0.32769943      1.25959267      1.47111806
H      -0.42478770     -0.39482570      2.07070042
H       1.94277002      0.21323109      2.18432850
H       4.12462271      0.58485822     -0.46182799
H       3.96006984     -1.17639384     -0.28505204
H       4.06108259     -0.14493972      1.14824789
H       1.55121823     -1.21789549     -1.58204693
H       2.08684533      0.41486595     -1.98251313
H       0.06631684      1.41869445     -1.24623890
H      -0.40052963      0.01970876     -2.21686270
