22
Clc1ccc2c(c1)Oc1ccccc1O2
Cl      5.15462050     -0.08727528      1.06801257
C       3.57749704      0.17672914      0.43212867
C       3.41096129      1.00599274     -0.67896388
C       2.13283756      1.22294814     -1.19822549
C       1.03251755      0.60851666     -0.60153652
C       1.20598932     -0.21895882      0.50850498
C       2.47948184     -0.43882919      1.03070835
O       0.15191890     -0.84344173      1.12685310
C      -1.08296076     -0.59956236      0.58053315
C      -2.18417427     -1.21310988      1.17590813
C      -3.46193746     -0.99628855      0.65689062
C      -3.63502969     -0.16798725     -0.45415044
C      -2.53073579      0.44533918     -1.04868056
C      -1.25573228      0.22733019     -0.52863471
O      -0.20229336      0.85205942     -1.14740944
H       4.26975690      1.48422141     -1.14293385
H       1.99604971      1.86700094     -2.06254863
H       2.60794852     -1.08382638      1.89470413
H      -2.04839327     -1.85719193      2.04007220
H      -4.32313853     -1.47310949      1.11857940
H      -4.63094079     -0.00034532     -0.85692397
H      -2.66424292      1.08978836     -1.91288778
