19
CC(=O)CC(C)C
C       2.87617964      0.09899111      0.42126911
C       1.55528742      0.31325996     -0.27153805
O       1.45929498      1.08473839     -1.22460595
C       0.38523615     -0.50597082      0.25099334
C      -0.97889032     -0.05666640     -0.29342757
C      -2.03714972     -1.12193122      0.00026438
C      -1.41033163      1.28041439      0.31448076
H       3.63858427      0.73897544     -0.03150575
H       3.18027708     -0.94507831      0.31423123
H       2.78197889      0.35879575      1.47851920
H       0.58041031     -1.54543566     -0.03876209
H       0.38788790     -0.45387753      1.34603567
H      -0.91695853      0.06486294     -1.38208188
H      -2.14463147     -1.28986088      1.07736996
H      -3.01302705     -0.82061484     -0.39511608
H      -1.76912448     -2.07561143     -0.46666051
H      -1.49968118      1.21105546      1.40407089
H      -2.38267422      1.58997898     -0.08363005
H      -0.69266804      2.07397465      0.08490903
