13
CC/C=C\C#N
C      -1.68316335     -0.35553600     -0.56244557
C      -0.58252220     -0.43450077      0.48435605
C       0.28942510      0.79085398      0.45254542
C       1.59619005      0.84291205      0.14789290
C       2.38383145     -0.28376793     -0.21513163
N       3.03390773     -1.19697265     -0.51263217
H      -2.31968266     -1.24460906     -0.50925378
H      -2.31789114      0.52338575     -0.40647668
H      -1.26408405     -0.29908169     -1.57280214
H      -1.03408920     -0.51358533      1.48008795
H      -0.00511138     -1.35174516      0.32874085
H      -0.20690027      1.72415305      0.71642730
H       2.11008993      1.79849376      0.16869151
