48
CCCCOc1ccc(C(=O)OCCN(CC)CC)cc1
C       9.07644713     -0.33014274      0.51801633
C       7.73026938      0.37238565      0.59185471
C       6.60144181     -0.52894341      0.09959006
C       5.24707052      0.17222686      0.17182959
O       4.25732996     -0.73986788     -0.30519759
C       2.96209702     -0.30332076     -0.32053700
C       2.03794614     -1.23944630     -0.79257234
C       0.67623395     -0.92949099     -0.86373736
C       0.22441666      0.33151765     -0.45954868
C      -1.21033150      0.72325030     -0.50993804
O      -1.62095246      1.82003536     -0.16584551
O      -1.96922627     -0.29802125     -0.97877131
C      -3.38180488     -0.03107774     -1.06783587
C      -4.06152266     -0.29330357      0.28707995
N      -5.52481545     -0.12045544      0.35635037
C      -6.27667402     -1.03299942     -0.52130126
C      -6.03315039     -2.51040847     -0.23078820
C      -5.96228296      1.26855803      0.12766595
C      -5.39867080      2.26958239      1.13103252
C       1.15117423      1.26988492      0.01354036
C       2.51368317      0.95420437      0.08283990
H       9.87032516      0.33325754      0.87519072
H       9.31238639     -0.61883499     -0.51122787
H       9.08278727     -1.23215444      1.13824722
H       7.76785822      1.28608693     -0.01260907
H       7.53953828      0.67618217      1.62769718
H       6.79125986     -0.84561894     -0.93374472
H       6.56475624     -1.45078369      0.69369504
H       5.26652442      1.06925470     -0.45872774
H       5.03405641      0.44818049      1.21160454
H       2.38286418     -2.22173892     -1.10823909
H      -0.01383978     -1.68220734     -1.23582656
H      -3.77116724     -0.71302010     -1.83017429
H      -3.55494468      0.98848353     -1.42998710
H      -3.58492882      0.32542940      1.05671201
H      -3.79950140     -1.30761920      0.61423877
H      -7.35012630     -0.85861183     -0.37226175
H      -6.07219167     -0.82848848     -1.57903758
H      -6.18410843     -2.73509604      0.83021926
H      -5.02318948     -2.82113693     -0.51444548
H      -6.73604792     -3.12296240     -0.80537565
H      -7.05480881      1.31256240      0.22480868
H      -5.72705519      1.59817400     -0.89133246
H      -5.89173738      3.23938421      1.00516637
H      -4.32586880      2.42983381      0.98961360
H      -5.57131837      1.93817449      2.16026335
H       0.81659000      2.25579536      0.33255281
H       3.19320926      1.71330668      0.45613791
