72
CCCCCCCC/C=C/CCCCCCCC(=O)NCCCN(C)C
C      10.38824856     -3.69348243     -1.56509151
C       8.96782256     -3.16517256     -1.68210046
C       8.58050315     -2.32348335     -0.46609782
C       7.15113330     -1.79163845     -0.59106407
C       6.75566907     -0.96883837      0.63720048
C       5.29020821     -0.52170031      0.62294543
C       4.98201951      0.51056704     -0.46692786
C       3.51109828      0.93977226     -0.49712559
C       3.08878205      1.71986067      0.71546979
C       2.72276920      3.01109442      0.68411701
C       2.27530865      3.78519257      1.89231303
C       0.81969904      4.25254082      1.79119355
C      -0.17932577      3.09001785      1.81129411
C      -1.62364977      3.59333582      1.75463820
C      -2.66126560      2.47440205      1.89282220
C      -2.63617731      1.47568666      0.73061690
C      -3.72567198      0.41102154      0.85563678
C      -5.11617363      0.91551844      0.51357933
O      -5.34909637      2.02855707      0.05680105
N      -6.09205547     -0.02807534      0.75126826
C      -7.48183938      0.19398768      0.41096252
C      -7.77536293     -0.00303352     -1.07670093
C      -7.39748201     -1.38978788     -1.61812038
N      -7.96273427     -2.52158883     -0.86184716
C      -9.42083375     -2.59207083     -0.99566312
C      -7.36870567     -3.77927879     -1.32470128
H      10.64108309     -4.29926646     -2.44112415
H      10.50180551     -4.32016852     -0.67456201
H      11.10828910     -2.87128458     -1.50158747
H       8.27746651     -4.01084460     -1.78384117
H       8.88234711     -2.56426931     -2.59502538
H       9.27713502     -1.48255516     -0.36276083
H       8.66903679     -2.93115243      0.44281460
H       6.45647187     -2.63151095     -0.70942514
H       7.07712922     -1.17878740     -1.49580675
H       7.40873155     -0.09235991      0.72464648
H       6.91747482     -1.57336998      1.53830453
H       5.06356457     -0.09476641      1.60651156
H       4.64040617     -1.39633892      0.50052602
H       5.62340203      1.39035813     -0.33442771
H       5.22215523      0.08882418     -1.44886610
H       3.34405131      1.53576867     -1.40334540
H       2.86805122      0.05624030     -0.58752687
H       3.05639124      1.17970556      1.65890440
H       2.74212584      3.55524859     -0.25808746
H       2.92306912      4.66451782      1.98998282
H       2.40910805      3.19592573      2.80802640
H       0.68090917      4.84477782      0.87762768
H       0.61172913      4.92099640      2.63602506
H       0.01262896      2.43065156      0.95862513
H      -0.03136526      2.49671227      2.72172988
H      -1.78616720      4.31196752      2.56737209
H      -1.79043731      4.13520933      0.81593946
H      -3.65224853      2.93851853      1.95824576
H      -2.50053916      1.94282847      2.83840510
H      -2.73116158      2.00916491     -0.22278988
H      -1.66890980      0.96113141      0.71716756
H      -3.50140921     -0.40357954      0.15562759
H      -3.73348685     -0.00888064      1.86819798
H      -5.81936188     -0.97760292      0.97207436
H      -7.74990098      1.21695257      0.70037620
H      -8.07862557     -0.48937095      1.02453629
H      -7.22431543      0.74780376     -1.65694343
H      -8.83790041      0.19476422     -1.25813553
H      -7.68732917     -1.44929625     -2.67582571
H      -6.30210125     -1.46070869     -1.59718008
H      -9.73628092     -2.69043505     -2.04063370
H      -9.81539748     -3.44765954     -0.43632697
H      -9.90123516     -1.70633882     -0.56927206
H      -6.28009259     -3.75907685     -1.20632933
H      -7.59823388     -3.98454224     -2.37568932
H      -7.73095064     -4.61730591     -0.72065593
