23
CCCC(=O)n1c(=O)[nH]cc(F)c1=O
C       3.13151928      0.98438506     -0.19954193
C       2.79429148     -0.43501373      0.23497165
C       1.31122911     -0.60988572      0.55407224
C       0.42683458     -0.55492627     -0.68227855
O       0.82635726     -0.84126968     -1.80999059
N      -0.88073947     -0.24324924     -0.41110390
C      -1.71007006     -1.24947909      0.04782634
O      -1.33088520     -2.33530120      0.48168768
N      -3.05726814     -0.96144945      0.05383690
C      -3.58179743      0.22614641     -0.36855125
C      -2.78098381      1.20617036     -0.78008450
F      -3.25541320      2.40034732     -1.17869831
C      -1.31074985      1.01906971     -0.77175004
O      -0.56892540      1.97656954     -0.98451641
H       4.20735314      1.07771457     -0.37862142
H       2.61245322      1.25448942     -1.12414599
H       2.85343788      1.70736103      0.57401593
H       3.37798837     -0.67267679      1.13207980
H       3.10668472     -1.13830657     -0.54544572
H       1.16539334     -1.59095301      1.01998262
H       0.98737491      0.15193127      1.27268078
H      -3.66348086     -1.70708876      0.38338570
H      -4.66060387      0.33541482     -0.34298693
