32
O=C([O-])CCCCCCCCC(=O)[O-].[Na+].[Na+]
O       5.74855811     -1.05204581      0.36798693
C       5.55230112     -0.21859551      1.29390673
O       6.38164787      0.26328068      2.12133165
C       4.12047162      0.29818348      1.47022464
C       3.07821317     -0.24872061      0.49629940
C       1.68441767      0.30603007      0.80767728
C       0.61792215     -0.24183289     -0.14644086
C      -0.77573560      0.26777352      0.23493963
C      -1.86956227     -0.30127309     -0.67549208
C      -3.26112483      0.12567403     -0.19342786
C      -4.38968635     -0.50310104     -1.00726679
C      -4.69070550      0.08203993     -2.39063504
O      -4.18871111      1.20908946     -2.65045881
O      -5.44607948     -0.64070180     -3.10522167
Na      0.00000000      0.00000000      0.00000000
Na      0.00000000      0.00000000      0.00000000
H       3.81510188      0.06083219      2.49725473
H       4.15302724      1.39190265      1.38762568
H       3.35919811      0.01230494     -0.53119647
H       3.05829859     -1.34387018      0.55358656
H       1.70232514      1.40092298      0.74402411
H       1.41584788      0.04845906      1.83968760
H       0.85298215      0.05647195     -1.17503172
H       0.62747060     -1.33803478     -0.11541518
H      -0.98746713     -0.01116216      1.27464853
H      -0.79364843      1.36339172      0.18646517
H      -1.80598363     -1.39614691     -0.68013571
H      -1.70654677      0.03757488     -1.70500714
H      -3.38102863     -0.18627759      0.85181481
H      -3.33996813      1.21903336     -0.20589683
H      -4.21183128     -1.58061883     -1.11227286
H      -5.31970417     -0.39448940     -0.43357444
