22
O=C(O)c1ccc2cc(O)ccc2c1
O       3.75361278      1.53186080      0.98556234
C       3.43049470      0.64446578      0.21771099
O       4.35008112     -0.03269380     -0.49227799
C       2.04515869      0.18763938     -0.04790899
C       1.76391384     -0.84278109     -0.94952016
C       0.44193691     -1.23938544     -1.16743834
C      -0.61612612     -0.61373013     -0.48928246
C      -1.94796674     -1.00206465     -0.69867783
C      -2.98002420     -0.36742742     -0.01517728
O      -4.25440760     -0.78734024     -0.25923364
C      -2.71654226      0.65811645      0.88390503
C      -1.39548726      1.05495088      1.10213440
C      -0.33518312      0.42990456      0.42430139
C       0.99740959      0.81948946      0.63474880
H       5.20071672      0.37010111     -0.21863321
H       2.56367318     -1.34485844     -1.48848810
H       0.24306312     -2.04354529     -1.87326611
H      -2.19084590     -1.80082556     -1.39493621
H      -4.86472236     -0.26028638      0.28216766
H      -3.51649987      1.15785479      1.42076520
H      -1.19769216      1.85912835      1.80808197
H       1.22543695      1.62142689      1.33546253
