32
Cc1ccc(S(=O)(=O)Oc2ccccc2C)cc1
C      -5.53010199     -0.84151087      0.53129223
C      -4.13866099     -0.36712200      0.22772625
C      -3.51697573     -0.72488888     -0.97675488
C      -2.23648851     -0.25842737     -1.27837670
C      -1.57732669      0.57396725     -0.37021182
S       0.05175033      1.18291410     -0.75764855
O       0.17322398      1.17124260     -2.20424293
O       0.23150342      2.41408457     -0.00967171
O       1.01202175      0.02795558     -0.12872581
C       2.38365567      0.07137607     -0.19271626
C       3.11663835      1.09923405     -0.79242049
C       4.51245799      1.05268124     -0.80628789
C       5.18338215     -0.01778628     -0.22270641
C       4.46027049     -1.04690512      0.37763427
C       3.05810390     -1.01353940      0.39900442
C       2.29637873     -2.13376233      1.05190487
C      -2.19318508      0.95929262      0.82319257
C      -3.47383500      0.48844518      1.11730039
H      -5.68130972     -0.94196096      1.61122508
H      -5.71335127     -1.82469532      0.08521979
H      -6.26207944     -0.13081410      0.13553039
H      -4.03078008     -1.36757319     -1.68925178
H      -1.76801767     -0.54309588     -2.21815919
H       2.63760690      1.95477018     -1.26015620
H       5.07532204      1.85634532     -1.27494173
H       6.26981260     -0.05102090     -0.23513579
H       4.99907058     -1.87682743      0.82962420
H       1.64477164     -2.62452756      0.32167746
H       2.97008538     -2.89459003      1.45995731
H       1.69097568     -1.74838720      1.87873065
H      -1.69106725      1.62419116      1.52281387
H      -3.95385217      0.79577854      2.04457441
