55
Cc1c(C(=O)O)c(O)cc2c1C(=O)c1c(O)c([C@H]3O[C@H](CO)[C@@H](O)[C@H](O)[C@H]3O)c(O)c(O)c1C2=O
C       4.79562251      1.22945263     -2.17633209
C       4.76722197      0.27368201     -1.00717085
C       5.95272553     -0.38451461     -0.58981341
C       7.29987359     -0.05986550     -1.11509813
O       8.20256226     -0.87123250     -1.22889460
O       7.48780071      1.25121554     -1.32411890
C       5.89015250     -1.39331778      0.38441995
O       6.97383287     -2.12772326      0.78771405
C       4.68918097     -1.70564064      1.00655604
C       3.52841930     -1.00568479      0.66773695
C       3.55578463     -0.00781428     -0.31506627
C       2.29592888      0.74837710     -0.56735182
O       2.28350383      1.76631723     -1.25235864
C       1.01554193      0.31209737      0.03468561
C      -0.20611955      0.93508476     -0.31672637
O      -0.22478065      1.97975357     -1.21279889
C      -1.44677888      0.53413429      0.23523335
C      -2.73906504      1.19994373     -0.22817744
O      -3.37013863      0.44967182     -1.27997838
C      -4.32950264     -0.52423826     -0.85446703
C      -4.89960407     -1.21686152     -2.10375901
O      -5.72700792     -2.32965103     -1.77750606
C      -5.44925646      0.13527890     -0.03701497
O      -6.44620088     -0.81596229      0.36304229
C      -4.86285459      0.81143262      1.19979448
O      -5.91726771      1.54007392      1.86484244
C      -3.74104428      1.77259532      0.80981399
O      -3.12975493      2.31881874      1.98618335
C      -1.39890695     -0.49822142      1.17301904
O      -2.53298909     -0.96541089      1.77107936
C      -0.19426783     -1.10979055      1.54277121
O      -0.29440357     -2.10878979      2.48374417
C       1.01436243     -0.71286628      0.97002196
C       2.27368242     -1.36358492      1.35510612
O       2.25721192     -2.21384169      2.24028248
H       5.63252607      1.02844709     -2.85200214
H       3.91309998      1.09942042     -2.81082555
H       4.85825697      2.26386255     -1.82635292
H       8.42773743      1.33875215     -1.59021916
H       7.72323653     -1.97657266      0.17099437
H       4.66858696     -2.49012509      1.76172538
H       0.69645813      2.18207449     -1.49612307
H      -2.41843200      2.11398767     -0.74183750
H      -3.84129510     -1.30366183     -0.26146536
H      -4.08415717     -1.57762486     -2.73992504
H      -5.48149098     -0.51255245     -2.70875423
H      -6.28063374     -2.05186794     -1.01521642
H      -5.96357698      0.88932910     -0.64677526
H      -6.97275463     -0.34904202      1.04586449
H      -4.54810608      0.07394899      1.93898444
H      -5.46116186      2.04776680      2.56639491
H      -4.23797229      2.62764493      0.32851264
H      -2.38316819      2.87183755      1.69368226
H      -2.23534905     -1.67698499      2.37807971
H       0.61473139     -2.44155747      2.67433867
