32
CC1C(=O)CCC2C(O)CCC(O)C12
C       2.02716494      2.20497160      0.33562121
C       1.56260590      0.89458809     -0.30224484
C       2.61334399     -0.19537311     -0.10467554
O       3.71401592      0.01548726      0.40348662
C       2.26608551     -1.55465558     -0.66194950
C       0.92344185     -2.00725491     -0.11407524
C      -0.17789244     -0.96636678     -0.38213743
C      -1.54173891     -1.47043680      0.12595039
O      -1.45528582     -1.75330541      1.52156937
C      -2.64304861     -0.43788009     -0.10277572
C      -2.28670645      0.90972635      0.52411655
C      -0.93095370      1.42726122      0.04065298
O      -1.02179372      1.73724894     -1.34963829
C       0.20190150      0.40147058      0.25569618
H       2.06496524      2.12269892      1.42730720
H       1.36518327      3.03561494      0.07430864
H       3.03083398      2.47634994     -0.01049582
H       1.49178272      1.05334033     -1.38619502
H       2.24780755     -1.48603552     -1.75481753
H       3.04593402     -2.26985870     -0.38006486
H       0.65201222     -2.96528953     -0.57298617
H       1.01978241     -2.18422692      0.96464998
H      -0.25764288     -0.83382548     -1.47068351
H      -1.80233631     -2.40512469     -0.38415176
H      -2.29911209     -2.15571219      1.79176553
H      -2.81407631     -0.31307702     -1.17863682
H      -3.58346817     -0.78906488      0.33821764
H      -2.27383596      0.81713477      1.61674014
H      -3.07345470      1.62965698      0.26885968
H      -0.70633221      2.35728143      0.57323058
H      -1.67330269      2.45411498     -1.44611021
H       0.31411994      0.25054129      1.33946558
