58
O=C(c1ccc(Oc2ccccc2)cc1)c1ccc(C(=O)c2ccc(Oc3ccccc3)cc2)cc1
O       2.17978839      1.76891782      2.18961378
C       2.31114708      0.83271750      1.40541104
C       3.63912076      0.18383735      1.26073590
C       4.78619666      0.97084018      1.42287074
C       6.05416668      0.39588106      1.30924329
C       6.17574788     -0.96766909      1.03002466
O       7.38915297     -1.61230242      0.94370905
C       8.39351177     -0.98043167      0.24735642
C       9.63997485     -0.88970986      0.86682945
C      10.70634605     -0.29022289      0.19624539
C      10.52815391      0.20233485     -1.09721417
C       9.28677597      0.08916943     -1.72466985
C       8.21820025     -0.50986889     -1.05625924
C       5.03493995     -1.76301254      0.90885609
C       3.76545223     -1.19053700      1.02317746
C       1.13215306      0.38140810      0.62473970
C       1.24958326     -0.05925447     -0.69856123
C       0.11004080     -0.45998639     -1.40148408
C      -1.15159364     -0.39750543     -0.79580088
C      -2.33107278     -0.84870381     -1.57599979
O      -2.20089649     -1.78407683     -2.36132933
C      -3.65874767     -0.20023761     -1.42812217
C      -3.78390847      1.17562658     -1.19767939
C      -5.05263940      1.74813031     -1.07755847
C      -6.19309910      0.95065160     -1.18500825
O      -7.40816460      1.59052608     -1.09231852
C      -8.38793891      0.98078112     -0.34264077
C      -8.16470283      0.52991703      0.96088028
C      -9.21105073     -0.04645673      1.68225987
C     -10.47830411     -0.15582901      1.10813078
C     -10.70404745      0.31710288     -0.18509598
C      -9.65971487      0.89327511     -0.90877378
C      -6.07346112     -0.41436291     -1.45786099
C      -4.80621209     -0.98914792     -1.57793695
C      -1.26903096      0.04329479      0.52743445
C      -0.12950671      0.44388908      1.23037518
H       4.69489628      2.03226828      1.64590425
H       6.93554207      1.01528376      1.45311055
H       9.77827653     -1.28120377      1.87083451
H      11.67638871     -0.21084653      0.67985482
H      11.36039534      0.66716680     -1.62012734
H       9.15384017      0.46164613     -2.73699779
H       7.25966419     -0.61121418     -1.55672583
H       5.13637852     -2.83095269      0.73167501
H       2.89186381     -1.83274550      0.94717017
H       2.21332347     -0.08514356     -1.20102713
H       0.20467725     -0.81457516     -2.42676822
H      -2.90976749      1.81811910     -1.13111114
H      -5.15391555      2.81687009     -0.90534813
H      -7.18634733      0.63023484      1.42161214
H      -9.04050009     -0.40374409      2.69457590
H     -11.29313831     -0.60252937      1.67253904
H     -11.69391591      0.24120942     -0.62712449
H      -9.83509317      1.26883604     -1.91306201
H      -6.95649506     -1.03391151     -1.59059943
H      -4.71550278     -2.05177792     -1.79545508
H      -2.23278402      0.06945058      1.02982518
H      -0.22414721      0.79857383      2.25566744
