37
CSc1ccc(C(=O)c2cc(CC(=O)O)cc3ccoc23)cc1
C       6.43453417      0.33125819     -1.71757755
S       5.03262953      0.71015001     -2.80314463
C       3.71025292      0.70372104     -1.60623768
C       3.71545944      1.56456393     -0.50427596
C       2.66091942      1.54239205      0.41315021
C       1.58155651      0.67277890      0.22305334
C       0.49575931      0.66201432      1.23424340
O       0.77579666      0.85655367      2.41564060
C      -0.90770114      0.39365649      0.87622296
C      -1.72520013     -0.33683585      1.75492093
C      -3.06885841     -0.60977451      1.45351175
C      -3.90716293     -1.43455863      2.40518531
C      -3.83450395     -2.91869558      2.14137764
O      -3.22139211     -3.49812798      1.26080018
O      -4.57074795     -3.62278367      3.02824081
C      -3.62532790     -0.14005012      0.24737082
C      -2.83094822      0.62091940     -0.63155867
C      -3.04062961      1.25774653     -1.88378062
C      -1.85112996      1.86101418     -2.21697423
O      -0.91810557      1.63640401     -1.25800710
C      -1.50328835      0.86892537     -0.29224851
C       1.57626138     -0.19535767     -0.87391783
C       2.63290880     -0.16897673     -1.78991695
H       6.62618264      1.15534698     -1.02496960
H       7.32868641      0.18182549     -2.32897872
H       6.24406779     -0.58463077     -1.15099089
H       4.53172888      2.26546606     -0.34983990
H       2.67895204      2.20971675      1.27264406
H      -1.29196872     -0.70273932      2.68624351
H      -3.57711411     -1.24718294      3.43386399
H      -4.95476094     -1.12013381      2.33113704
H      -4.43930104     -4.55573583      2.75641007
H      -4.66051635     -0.35284709     -0.00745403
H      -3.95025355      1.27971120     -2.46649727
H      -1.52213909      2.45744505     -3.05691442
H       0.76508344     -0.90108490     -1.02917246
H       2.61027068     -0.84209421     -2.64434324
