26
CC1=CCC(C(C)C)=CC1
C       3.79034918      0.41603096      0.00926764
C       2.29778732      0.27357374      0.06672066
C       1.69888215     -0.73465108      0.72566162
C       0.20821621     -0.91680164      0.80970059
C      -0.59294820      0.14297957      0.08084301
C      -2.11184363      0.04047168      0.11092462
C      -2.61513117     -1.23916239     -0.56083842
C      -2.66810857      0.15987225      1.53160772
C       0.01685469      1.14975350     -0.57685116
C       1.50644696      1.33152197     -0.66066970
H       4.09785094      1.37067959      0.44814396
H       4.30173828     -0.38289903      0.55638712
H       4.13526064      0.38290169     -1.02922278
H       2.29795344     -1.48156393      1.24022339
H      -0.03078866     -1.90380265      0.39876102
H      -0.06803900     -0.92025883      1.86981227
H      -2.53057837      0.88010320     -0.46106508
H      -2.20693520     -1.33948873     -1.57247730
H      -2.34098411     -2.13419059      0.00765209
H      -3.70757990     -1.22378299     -0.64271278
H      -2.39524551     -0.70108908      2.15104722
H      -2.29801235      1.06550904      2.02451192
H      -3.76209466      0.21582370      1.51042733
H      -0.57514098      1.90075284     -1.09395920
H       1.75742263      2.31565625     -0.24747453
H       1.79466789      1.33206095     -1.71857672
