57
O=C(CCS)OCC(COC(=O)CCS)(COC(=O)CCS)COC(=O)CCS
O      -3.48702515     -0.30558485     -2.65024139
C      -2.45436833     -0.95517923     -2.57348833
C      -2.01861280     -2.02609447     -3.53957867
C      -3.03545023     -2.17366917     -4.66095701
S      -2.49951773     -3.44943888     -5.83834437
O      -1.51813179     -0.81662692     -1.59287004
C      -1.81074311      0.19939494     -0.62258734
C      -0.63851346      0.37263454      0.37272631
C      -1.06719590      1.35935934      1.48396676
O      -1.43596675      2.62252471      0.90577046
C      -1.83201306      3.56378012      1.81123936
O      -1.89829429      3.38618581      3.01852132
C      -2.19586634      4.83678418      1.08933479
C      -2.44099644      6.00224889      2.03813818
S      -0.90082382      6.61509740      2.79068806
C      -0.30011813     -0.99420131      1.00737178
O       0.76087035     -0.83428571      1.96357493
C       1.64740119     -1.86367117      2.05526081
O       1.59690244     -2.90192195      1.40910560
C       2.71787747     -1.55082195      3.06607294
C       2.64502096     -2.49491505      4.25316449
S       1.23718824     -2.11664589      5.34520484
C       0.60054536      0.95856562     -0.35251027
O       1.13507474      0.03920620     -1.32250231
C       2.36661407     -0.48836221     -1.07335055
O       3.07819568     -0.20503999     -0.12009261
C       2.72212549     -1.46699207     -2.16316045
C       3.91390267     -2.31520022     -1.74624268
S       4.35688117     -3.48764891     -3.06390445
H      -1.92099604     -2.96514171     -2.98278613
H      -1.04093988     -1.73852290     -3.94378801
H      -3.15809842     -1.23078666     -5.20439674
H      -4.01613316     -2.45712171     -4.26420142
H      -3.55847836     -3.35592929     -6.65669608
H      -2.71754554     -0.09696575     -0.07990501
H      -2.01005113      1.14479584     -1.14279102
H      -0.24626367      1.52410428      2.19287191
H      -1.92796455      0.95541306      2.03218128
H      -3.11752198      4.63618657      0.53047007
H      -1.40586038      5.08430628      0.37078726
H      -2.88349048      6.83389635      1.48037037
H      -3.13676736      5.72966341      2.83803823
H      -0.71270249      5.56762963      3.61195456
H      -1.16964943     -1.38628497      1.54831559
H      -0.03566284     -1.72401766      0.23419053
H       2.66342437     -0.50052203      3.37548279
H       3.67949304     -1.66730300      2.55199957
H       3.55845455     -2.40836720      4.85007215
H       2.55465559     -3.53620729      3.92788259
H       1.65392438     -0.89997546      5.72751177
H       0.32258805      1.86194220     -0.90823557
H       1.36225022      1.27050632      0.37188773
H       1.85183949     -2.10917917     -2.34463102
H       2.94379253     -0.89331393     -3.06990988
H       3.68489152     -2.88352079     -0.83846215
H       4.78775166     -1.69008622     -1.53408851
H       4.75009779     -2.57467999     -3.96443503
