50
CC(C#N)CC(C)(C)CC#N.CC(CC#N)CC(C)(C)C#N
C       2.62270993     -1.27146471     -0.53382768
C       1.63842486     -0.28763566      0.10893238
C       2.28825451      1.03157412      0.21361881
N       2.79428048      2.07181206      0.30308331
C       0.33929944     -0.22467243     -0.72537851
C      -0.94141284      0.37351888     -0.05374001
C      -2.11051284      0.21076879     -1.05574117
C      -0.78149331      1.88420716      0.21099503
C      -1.31281975     -0.30963008      1.29075226
C      -1.42584902     -1.77338312      1.19806690
N      -1.48717500     -2.92885573      1.11760346
C       1.57336578      0.37443665     -1.24192402
C       1.15952566     -0.18955847      0.12145005
C       2.25890988      0.09335914      1.17297435
C       3.47021680     -0.70947823      0.94267378
N       4.42179568     -1.34893227      0.76536971
C      -0.18621319      0.38945653      0.63540672
C      -1.47668707      0.14133924     -0.19819182
C      -1.59677227     -1.31835007     -0.65849187
C      -2.69450016      0.47332440      0.69106592
C      -1.52532761      1.04213879     -1.37251082
N      -1.56360135      1.75623029     -2.28633502
H       2.19432077     -2.27854600     -0.57840136
H       3.55245494     -1.33043666      0.04369839
H       2.88471454     -0.96776484     -1.55402635
H       1.42025932     -0.65879648      1.11543307
H       0.53867769      0.32920502     -1.65458453
H       0.09676453     -1.24684086     -1.04826403
H      -2.27502477     -0.83948806     -1.31993731
H      -3.04729619      0.59943414     -0.64032311
H      -1.90951395      0.75559689     -1.98545083
H      -0.07371293      2.08309280      1.02104241
H      -1.73592810      2.33348394      0.51037815
H      -0.43695475      2.41167595     -0.68529168
H      -0.56780503     -0.06194311      2.05651539
H      -2.26466254      0.09508799      1.65857399
H       0.89527393      0.04347353     -2.03275535
H       2.57226757      0.03159979     -1.53090893
H       1.58676383      1.46941155     -1.23028007
H       1.05665651     -1.27795087      0.02442446
H       2.51294549      1.16010106      1.17647052
H       1.88283104     -0.14467069      2.17555353
H      -0.06405356      1.47026665      0.79748671
H      -0.35244811     -0.04247675      1.63297466
H      -2.55914513     -1.50040459     -1.15238815
H      -1.52389984     -2.00702481      0.19066848
H      -0.81890155     -1.58733854     -1.38115216
H      -3.63623111      0.35501934      0.14129084
H      -2.73746326     -0.18311645      1.56768070
H      -2.65530795      1.50914477      1.04944778
