27
O=S(=O)(c1cccc(O)c1)c1cccc(O)c1
O       0.50912320     -1.59132641     -2.38745308
S       0.26962190     -0.25618062     -1.86997839
O       0.23397908      0.88526686     -2.76640568
C      -1.28540263     -0.27078942     -1.01268155
C      -2.05055441     -1.44000966     -0.96587731
C      -3.26664206     -1.43519756     -0.28131949
C      -3.71279145     -0.26991813      0.34683935
C      -2.93936290      0.88725621      0.28209600
O      -3.34231560      2.04413520      0.87970804
C      -1.72719129      0.90148473     -0.39555294
C       1.52520160      0.04294788     -0.65042531
C       2.29121229      1.21135567     -0.70311208
C       3.26858415      1.43335752      0.26795567
C       3.47834328      0.49267854      1.27920859
C       2.70981852     -0.66915829      1.30985198
O       2.88689830     -1.61142982      2.27868998
C       1.73356926     -0.90754750      0.35127113
H      -1.71232299     -2.35052983     -1.45634873
H      -3.86835512     -2.34027659     -0.23927047
H      -4.66123681     -0.28320966      0.87553933
H      -4.21379588      1.90092270      1.28477284
H      -1.14583772      1.81829030     -0.44383749
H       2.13717223      1.94686747     -1.49006937
H       3.86896364      2.33970576      0.23517063
H       4.24269783      0.68088332      2.02726673
H       3.61661329     -1.33351835      2.85691817
H       1.15401029     -1.82606032      0.38704346
