22
Clc1ccc(-c2c(Cl)cc(Cl)c(Cl)c2Cl)c(Cl)c1Cl
Cl     -5.27252577      0.08701071     -0.25044664
C      -3.54534185     -0.00255137     -0.19401570
C      -2.87326262      1.08215048      0.37323655
C      -1.48145068      1.08157530      0.45431971
C      -0.73282355     -0.00443869     -0.03124052
C       0.74357238      0.03987833      0.07777776
C       1.39696073     -0.47555380      1.21538902
Cl      0.51403866     -1.15920772      2.53958983
C       2.78781031     -0.45397853      1.32281998
C       3.56148424      0.08543076      0.29573288
Cl      5.27756979      0.07242035      0.51665673
C       2.95057275      0.61185427     -0.85006929
Cl      3.92469834      1.28922232     -2.11998183
C       1.54489704      0.58802103     -0.95518433
Cl      0.76447823      1.24405873     -2.37155181
C      -1.42125089     -1.10044329     -0.60465207
Cl     -0.49787792     -2.45035856     -1.20756977
C      -2.82750036     -1.10176693     -0.68717701
Cl     -3.67230796     -2.44818953     -1.39068065
H      -3.43051795      1.93531784      0.75575658
H      -0.98133880      1.94025802      0.90132700
H       3.27011589     -0.86070971      2.20996359
