60
CCC(Cc1ccc(C)cc1)(C(=O)c1ccc(N2CCOCC2)cc1)N(C)C
C      -1.16655754      0.17528740     -2.43648785
C      -1.25138815     -0.50727893     -1.07083090
C      -1.39555457      0.44441117      0.16547831
C      -2.73989410      1.28201419      0.07746876
C      -4.08696576      0.58583744      0.13205602
C      -4.60280568     -0.10797350     -0.96928209
C      -5.85390570     -0.73008851     -0.90637001
C      -6.63203676     -0.64721500      0.25139080
C      -7.95960227     -1.33950516      0.33159858
C      -6.13246553      0.05678147      1.34973525
C      -4.88148752      0.67684727      1.28478579
C      -0.22304191      1.50235440      0.07947590
O      -0.45817838      2.71571733      0.03564737
C       1.22730395      1.10035158      0.01973848
C       1.72374383     -0.13189866      0.44222896
C       3.09444821     -0.42685650      0.34615716
C       4.01513101      0.49038161     -0.17763627
N       5.39075244      0.23767510     -0.28008481
C       5.93647987      0.38255986     -1.65372448
C       7.47335716      0.34043685     -1.61913193
O       7.95902858     -0.85517090     -0.98882664
C       7.47447138     -0.92548541      0.36164503
C       5.93868720     -0.95386213      0.40442308
C       3.50426961      1.73641246     -0.57012858
C       2.13928531      2.03882796     -0.47733718
N      -1.21259612     -0.30038135      1.45841224
C      -1.96590123     -1.54314582      1.60495334
C      -1.34917806      0.52253464      2.66191221
H      -2.04503464      0.78713314     -2.65168480
H      -1.09792607     -0.58519471     -3.22178270
H      -0.27928612      0.80832057     -2.52154784
H      -0.35852701     -1.13448565     -0.97017936
H      -2.08850620     -1.21226833     -1.10566675
H      -2.73484110      1.88328341     -0.84259520
H      -2.73247841      2.04550668      0.86904684
H      -4.04674353     -0.16722695     -1.90005478
H      -6.22015876     -1.27172254     -1.77572597
H      -7.83339446     -2.34295811      0.74914254
H      -8.41859925     -1.42460606     -0.65880413
H      -8.65437294     -0.77695619      0.96392988
H      -6.71673011      0.13565161      2.26362223
H      -4.53435364      1.23687905      2.14958563
H       1.07746854     -0.89290107      0.86607604
H       3.41297998     -1.40778559      0.68645981
H       5.63480596      1.32435175     -2.12380416
H       5.56373959     -0.44395032     -2.27271610
H       7.87767823      1.21130505     -1.08922691
H       7.86734121      0.35961735     -2.64019965
H       7.87475519     -1.84033737      0.80994359
H       7.87021568     -0.07396368      0.92843352
H       5.62267744     -0.97860747      1.45385883
H       5.58567426     -1.86261437     -0.09947415
H       4.17598966      2.51219888     -0.92916183
H       1.79919115      3.02373624     -0.79261146
H      -3.04582811     -1.39478835      1.64594778
H      -1.73696399     -2.25635250      0.80805582
H      -1.67408886     -2.05091005      2.53235483
H      -0.73654483      1.42803796      2.61430794
H      -2.38265350      0.81559407      2.86018347
H      -0.99088462     -0.03203343      3.53702053
