20
Cc1cnnc2c(O)cccc12
C       2.73218656     -0.35161019     -0.02768969
C       1.47855655      0.47208359     -0.03484265
C       1.56945946      1.85568126     -0.07759410
N       0.49374124      2.66351264     -0.08676117
N      -0.75165959      2.11336226     -0.05284103
C      -0.91366274      0.77778254     -0.01053415
C      -2.19995003      0.24014103      0.02358451
O      -3.29749183      1.06857470      0.01410769
C      -2.43672016     -1.12952969      0.06796088
C      -1.35681810     -2.00173193      0.07899652
C      -0.05608987     -1.49353864      0.04555883
C       0.18800456     -0.09915536      0.00034032
H       2.78728406     -0.95439055      0.88449735
H       3.62788712      0.27822905     -0.05909603
H       2.76227604     -1.00797516     -0.90332921
H       2.52288641      2.37259801     -0.10642890
H      -2.94005633      1.97956786     -0.01820514
H      -3.45512501     -1.50619382      0.09350483
H      -1.52409165     -3.07543949      0.11352578
H       0.76938329     -2.20196811      0.05524536
