15
C/C(=C/C(=O)O)C(=O)O
C      -1.43557109     -1.57523986      0.03846267
C      -0.48813735     -0.41888592      0.07262122
C       0.29383825     -0.07588408     -0.96482567
C       1.15836432      1.11303462     -0.99661157
O       1.08765824      2.11537614     -0.31482782
O       2.08074197      0.97139221     -1.96266544
C      -0.47655182      0.33033379      1.34022027
O      -1.45257672      0.78841860      1.90322281
O       0.75029449      0.35041202      1.88490863
H      -1.20463614     -2.28315175      0.84143575
H      -2.46753859     -1.23164671      0.16498441
H      -1.38101457     -2.12043647     -0.90984429
H       0.29303374     -0.66692994     -1.87398994
H       2.60113704      1.80027055     -1.90899632
H       0.64095823      0.90293680      2.68590530
