30
O=S(Cc1ccccc1)Cc1ccccc1
O      -0.75964817     -2.45060540     -1.79462003
S      -0.06608579     -1.21405874     -1.29540563
C       1.57661915     -1.73256778     -0.69592995
C       2.44021172     -0.58083709     -0.25051640
C       2.88023389      0.38236798     -1.17101465
C       3.67622878      1.45013031     -0.75387787
C       4.04603522      1.56410624      0.58440711
C       3.62409256      0.60879970      1.50657676
C       2.82775907     -0.46013018      1.09222374
C      -0.76145697     -0.80052761      0.33822926
C      -2.13211760     -0.18306241      0.22922952
C      -2.30482211      1.20104099      0.37700589
C      -3.57513618      1.77095045      0.27413335
C      -4.68343336      0.96594531      0.01805792
C      -4.52307216     -0.40919464     -0.13864069
C      -3.25448245     -0.98133652     -0.03468051
H       2.07544222     -2.25172360     -1.52218440
H       1.43591589     -2.46680901      0.10470668
H       2.60776866      0.30727023     -2.22243141
H       4.01087878      2.19196889     -1.47484389
H       4.66805734      2.39497547      0.90754966
H       3.91921243      0.69497896      2.54944654
H       2.51441280     -1.19774227      1.82830842
H      -0.80535894     -1.71192310      0.94466262
H      -0.08821024     -0.10117980      0.84239951
H      -1.45154802      1.84710307      0.57194610
H      -3.70002888      2.84438882      0.39002062
H      -5.67146530      1.41047876     -0.06634431
H      -5.38433341     -1.03762006     -0.34987497
H      -3.14166896     -2.05518697     -0.17703284
