28
O=C([O-])CNS(=O)(=O)c1ccc2ccccc2c1
O       2.86524779      1.62425714      1.17278354
C       3.06150644      1.26566116     -0.03275633
O       3.04474384      1.93864694     -1.09728629
C       3.36965017     -0.24675488     -0.19019246
N       3.12245590     -0.92145127      1.13183278
S       1.76816896     -1.90159488      1.26751736
O       1.61327177     -2.24321949      2.66731932
O       1.87224447     -2.94795469      0.26858672
C       0.39237695     -0.86768323      0.83029662
C       0.04225703      0.19468080      1.66217421
C      -1.06063789      0.98672452      1.33934022
C      -1.83243209      0.71365556      0.19771987
C      -2.94507033      1.50174589     -0.13738817
C      -3.70335652      1.22038239     -1.27520759
C      -3.35811282      0.14893117     -2.09379179
C      -2.25295378     -0.64289307     -1.77731921
C      -1.47981417     -0.37388198     -0.63641679
C      -0.36331077     -1.15904350     -0.31008245
H       4.42867918     -0.36924793     -0.43826700
H       2.77408945     -0.68960976     -0.99289837
H       3.09051439     -0.15536218      1.83132674
H       0.64148755      0.43249222      2.53850581
H      -1.29968033      1.83160890      1.98076272
H      -3.22193135      2.34825035      0.48649404
H      -4.55715641      1.84388135     -1.52435838
H      -3.94173018     -0.06728730     -2.98401845
H      -1.99075604     -1.47014760     -2.43290020
H      -0.07975120     -1.99478663     -0.94583395
