39
CCCC(CCC)C(=O)NCCCC(=O)O
C      -1.68757285      3.24371728      1.50771421
C      -1.73097114      1.72365432      1.47097552
C      -1.20993260      1.18352565      0.13603233
C      -1.20555399     -0.36088318      0.08035679
C      -2.61831982     -0.91794489     -0.19106173
C      -2.84691594     -2.33495285      0.35223115
C      -2.00175512     -3.41225276     -0.30598781
C      -0.20229041     -0.78892708     -0.99492415
O      -0.52170314     -1.16863395     -2.11642987
N       1.11121120     -0.66411678     -0.59538992
C       2.20482509     -1.04508191     -1.45726549
C       3.56898379     -0.63577426     -0.90298158
C       3.76107688      0.87976747     -0.81020896
C       3.07634340      1.49110727      0.38478413
O       2.44340972      0.91165448      1.25309037
O       3.23544481      2.82780469      0.42477972
H      -0.66411893      3.61042079      1.37885961
H      -2.06066565      3.61028631      2.46914358
H      -2.30939606      3.67285751      0.71559679
H      -1.12106896      1.32982350      2.29234797
H      -2.76051471      1.39515489      1.64582505
H      -1.81454280      1.58089856     -0.68966456
H      -0.19673745      1.57523935     -0.01813265
H      -0.84644802     -0.75007100      1.04239173
H      -2.85043507     -0.89709226     -1.26272519
H      -3.36667063     -0.27682230      0.28900601
H      -2.67048585     -2.34746467      1.43433335
H      -3.90378391     -2.58985345      0.20621877
H      -2.30415636     -4.39934428      0.05886466
H      -0.94069055     -3.28895250     -0.07201912
H      -2.12716046     -3.40325154     -1.39300081
H       1.30802010     -0.44492636      0.38031138
H       2.04069017     -0.60704294     -2.44847508
H       2.16412806     -2.13437177     -1.57101996
H       3.72767213     -1.10059317      0.07779950
H       4.33727645     -1.03784987     -1.57468258
H       3.39404691      1.36711464     -1.71975927
H       4.83204713      1.08966547     -0.70761269
H       2.75671457      3.11351158      1.23067881
