22
Clc1ccc(Cl)c(-c2c(Cl)c(Cl)cc(Cl)c2Cl)c1
Cl     -4.06438372     -1.92460814      0.85770045
C      -2.99937583     -0.65350705      0.40111997
C      -3.51750744      0.59265731      0.05952743
C      -2.65234176      1.62268424     -0.31058067
C      -1.27141399      1.40284589     -0.33782102
Cl     -0.25496874      2.72244278     -0.80572037
C      -0.73330781      0.14598233      0.00563542
C       0.72208818     -0.12344347     -0.01168403
C       1.35833786     -0.60112021     -1.18439571
Cl      0.41566796     -0.89930780     -2.61812369
C       2.74239960     -0.83810435     -1.19728812
Cl      3.57611836     -1.42189856     -2.59605191
C       3.50654421     -0.60711774     -0.05442837
C       2.89900433     -0.14048149      1.11028004
Cl      3.92079784      0.11355052      2.48281390
C       1.51610523      0.10167855      1.14031348
Cl      0.77007448      0.67945717      2.60411925
C      -1.62260468     -0.88063825      0.37635736
H      -4.59012428      0.76885605      0.07904192
H      -3.06024243      2.59504927     -0.57687047
H       4.57894725     -0.79217783     -0.07126091
H      -1.23981462     -1.86279921      0.64731605
