23
CCOC(=O)C(C)CC
C       2.77212766     -0.94021606      0.87666279
C       2.52022620     -0.30441839     -0.47765296
O       1.28585768      0.42692439     -0.45796951
C       0.16449489     -0.29499704     -0.73671662
O       0.13934777     -1.49070196     -0.99469834
C      -1.06197604      0.59598101     -0.65944232
C      -1.85777467      0.45504228     -1.95548382
C      -1.91885236      0.22609531      0.55746125
C      -1.23152356      0.54459934      1.87894728
H       3.73942012     -1.45022039      0.89192720
H       1.99036380     -1.66612670      1.12165856
H       2.75990908     -0.18119507      1.66579184
H       3.31482174      0.41542681     -0.69965314
H       2.52907751     -1.05090855     -1.28012262
H      -0.74089436      1.64214463     -0.57750706
H      -1.23170947      0.68884241     -2.82359031
H      -2.23514664     -0.56532779     -2.08596616
H      -2.71445228      1.13693355     -1.96198453
H      -2.86511153      0.77935948      0.51899327
H      -2.17128883     -0.84123689      0.53749183
H      -0.96511834      1.60470368      1.93706701
H      -1.90074643      0.31734494      2.71491520
H      -0.32105194     -0.04804897      2.00987117
