6
IC=CI
I       2.40256956     -0.49297177     -0.29455494
C       0.55248934      0.35878974     -0.11673285
C      -0.55248935     -0.35878975      0.11673278
I      -2.40256953      0.49297179      0.29455494
H       0.51418496      1.43833008     -0.22325042
H      -0.51418499     -1.43833008      0.22325048
