23
COc1cccc(C(=O)O)c1OC
C       2.68783771     -2.03207501     -0.10791642
O       2.00442342     -0.80006281     -0.29315338
C       0.69229040     -0.73704158      0.10056810
C      -0.05771576     -1.83542449      0.53387878
C      -1.38323548     -1.67119235      0.94237548
C      -1.97114536     -0.40740277      0.92211417
C      -1.23895145      0.70489871      0.48289703
C      -1.88562663      2.03898434      0.44650928
O      -1.65961565      2.95651007     -0.31837851
O      -2.82813436      2.15854729      1.40332621
C       0.08608930      0.53392151      0.05438188
O       0.83271551      1.63045387     -0.30719681
C       0.92010780      1.73181620     -1.72921455
H       3.73142657     -1.88264375     -0.40123038
H       2.27052802     -2.81271427     -0.75214316
H       2.67841520     -2.33821219      0.94345696
H       0.36240459     -2.83538240      0.57099436
H      -1.95712880     -2.53036871      1.28228345
H      -3.00336585     -0.29583343      1.24677976
H      -3.14781114      3.07841395      1.29094263
H       1.63296869      1.00473586     -2.13022911
H       1.28984488      2.73307247     -1.96988666
H      -0.05632161      1.60699951     -2.21115909
