22
c1cnc2c(c1)ccc1ncccc12
C      -3.35339638      0.43971227      0.46770578
C      -2.58631301      1.58347930      0.40645634
N      -1.24739406      1.58157064      0.22610135
C      -0.60108645      0.39690712      0.09553267
C      -1.31712113     -0.81900486      0.14724672
C      -2.70557952     -0.77994819      0.33563895
C      -0.64899186     -2.03972936      0.01240079
C       0.73076899     -2.06173835     -0.17418495
C       1.46797543     -0.89387412     -0.23052283
N       2.79712353     -0.98882752     -0.41298283
C       3.51518905      0.15362125     -0.46767519
C       2.96433064      1.41228474     -0.34723011
C       1.59046243      1.50174345     -0.15895134
C       0.79604315      0.34065394     -0.09466514
H      -4.42580424      0.49498336      0.61415242
H      -3.03724472      2.56703637      0.50333125
H      -3.28696180     -1.69767230      0.38017581
H      -1.19112128     -2.98164522      0.05077153
H       1.24458429     -3.01470501     -0.27840901
H       4.58305137      0.02138962     -0.61633997
H       3.58241869      2.30091369     -0.39779182
H       1.12906687      2.48284917     -0.06076043
