42
Nc1nc(-c2cc3c(s2)-c2ccccc2OCC3)c(-c2ccccc2Cl)s1
N       4.19168979     -2.46791777     -3.92387090
C       3.65370882     -1.86382409     -2.85045471
N       2.36800739     -1.67900323     -2.70845413
C       2.10331798     -1.04057185     -1.50158969
C       0.60396952     -0.70828860     -1.13307421
C      -0.44002023     -1.02826460     -1.96654305
C      -1.72292800     -0.63970209     -1.44473756
C      -1.61330978     -0.03694610     -0.19256962
S       0.05170717      0.06713052      0.26329418
C      -2.66559316      0.51575563      0.70937411
C      -2.39028537      0.78194711      2.06901239
C      -3.33745201      1.36290444      2.92161988
C      -4.59399468      1.69901760      2.43880992
C      -4.90698698      1.43010942      1.11165713
C      -3.96867879      0.81976605      0.26561391
O      -4.44093627      0.59170330     -1.00239180
C      -4.24951174     -0.76591275     -1.40528316
C      -2.98187115     -0.87371459     -2.22922176
C       3.22176832     -0.75682951     -0.73451828
C       3.38867786     -0.11515204      0.56725546
C       3.62820121      1.26848410      0.61445616
C       3.78601766      1.92268917      1.83806863
C       3.70781043      1.20360892      3.02853558
C       3.47125461     -0.17090434      2.99774769
C       3.31181864     -0.83015401      1.77445457
Cl      3.01501733     -2.53426740      1.81371177
S       4.62922932     -1.30232704     -1.56219046
H       3.53852297     -3.01996350     -4.46885904
H       5.08989429     -2.91769175     -3.79432176
H      -0.29596557     -1.51658197     -2.92421338
H      -1.42190168      0.54424236      2.50319909
H      -3.08214187      1.55820962      3.96017864
H      -5.32892481      2.16129670      3.09168602
H      -5.89317618      1.68046067      0.72843353
H      -5.10638004     -1.02617676     -2.03722108
H      -4.26468322     -1.46448675     -0.55695540
H      -2.93920276     -1.87187558     -2.68193003
H      -3.01037277     -0.14038359     -3.04525319
H       3.68680651      1.84630041     -0.30639803
H       3.96738302      2.99481982      1.86017942
H       3.82950732      1.71329141      3.98130859
H       3.41000688     -0.72442310      3.93145459
