51
CCCCN1CCCC[C@H]1C(=O)Nc1c(C)cccc1C.Cl
C      -4.87544955     -2.30738925      0.52670074
C      -4.45748966     -1.84170187     -0.86267479
C      -3.70594897     -0.51451686     -0.76506761
C      -2.44173093     -0.65567635      0.07906853
N      -1.74323831      0.57918989      0.19335798
C      -2.32925782      1.60282814      0.91486634
C      -2.26072508      2.88663485      0.09216071
C      -0.80476826      3.13500667     -0.19432053
C      -0.28490687      1.99704124     -1.04750697
C      -0.46168843      0.66678971     -0.34238966
C       0.63761506      0.58212500      0.71679265
O       0.23740545      1.02965783      1.82032079
N       1.86891243      0.06618712      0.45391248
C       3.07068113     -0.43650077      0.20064355
C       4.16330434      0.32276982     -0.14760300
C       4.02609169      1.77800436     -0.25302745
C       5.39561240     -0.26221591     -0.40791076
C       5.54174015     -1.62356690     -0.31936251
C       4.47757079     -2.41812068      0.02764975
C       3.26521867     -1.83217723      0.28052682
C       2.08978817     -2.65132296      0.64576391
Cl      0.68453201      0.00000000      0.00000000
H      -4.18025621     -3.11476144      0.81992581
H      -4.74538928     -1.45848380      1.22177142
H      -5.93232315     -2.61538586      0.58055236
H      -5.39938370     -1.70351802     -1.44150825
H      -3.86165749     -2.58663086     -1.40326138
H      -3.45589810     -0.21988292     -1.80240434
H      -4.39487278      0.23162443     -0.27614679
H      -1.78080996     -1.37737270     -0.46787208
H      -2.72236923     -1.05612948      1.06804741
H      -3.39807852      1.40244496      1.08071249
H      -1.91888075      1.84411501      1.89813241
H      -2.70395271      3.73382878      0.65557804
H      -2.76368351      2.66950679     -0.86446747
H      -0.23559772      3.19287073      0.75467484
H      -0.66862117      4.05636220     -0.81633765
H      -0.87005285      1.98806663     -1.99247161
H       0.78073592      2.16320875     -1.19734171
H      -0.27075593     -0.14853193     -1.06688062
H       2.23380719      0.27223100      1.74779784
H       5.03488050      2.25275494     -0.11306435
H       3.38323875      2.26089239      0.48344157
H       3.72043504      1.99534249     -1.31784728
H       6.26074656      0.34526921     -0.68686829
H       6.53345735     -2.05310234     -0.53808591
H       4.62208172     -3.48466088      0.09659046
H       1.16362598     -2.04666301      0.71626511
H       1.90432562     -3.32303225     -0.25328112
H       2.25651206     -3.32340869      1.50244816
H      -0.68453201      0.00000000      0.00000000
