26
CC(C)(C)c1ccc(O)c(O)c1
C      -2.23702710      0.21499246     -1.06653170
C      -1.47903000     -0.08356875      0.24496906
C      -1.90726867      0.93556628      1.32279464
C      -1.93520822     -1.47875318      0.72868743
C       0.03700103      0.02610315      0.00266260
C       0.59760429      1.24538083     -0.44242458
C       1.97141143      1.38660718     -0.67461911
C       2.80645915      0.30166115     -0.46266157
O       4.15575497      0.37227603     -0.67017685
C       2.27854470     -0.90673401     -0.02536829
O       3.10607005     -1.97442000      0.18242087
C       0.91463637     -1.05311931      0.20701628
H      -2.05793138      1.23411902     -1.42625134
H      -1.93241059     -0.47355684     -1.86364859
H      -3.31969137      0.10933569     -0.93017162
H      -1.72128480      1.96971878      1.01290669
H      -2.97876326      0.85432992      1.54009371
H      -1.36325642      0.77014520      2.26032985
H      -3.02005613     -1.50681189      0.88687133
H      -1.69679004     -2.25800174     -0.00459586
H      -1.46418807     -1.74972303      1.68078577
H      -0.03974106      2.11058935     -0.61539772
H       2.35695444      2.34153848     -1.01582309
H       4.36600481      1.27293371     -0.97081288
H       3.99627052     -1.63781570     -0.04195527
H       0.56593540     -2.02279277      0.54758129
