48
CC(C)(C)C(O)C(Oc1ccc(-c2ccccc2)cc1)n1cncn1
C      -3.00452280      2.33131872      0.00665799
C      -3.67943533      0.98051434      0.31130955
C      -5.20577244      1.23909056      0.35977727
C      -3.23725253      0.49894850      1.70518476
C      -3.37279494     -0.09759129     -0.78575524
O      -4.26532524     -1.21191845     -0.55450963
C      -1.90460811     -0.62111516     -0.87351889
O      -0.96089886      0.45181202     -0.92274346
C       0.30377414      0.23442753     -0.44766089
C       0.87613942     -1.00087691     -0.15163473
C       2.19586529     -1.07022320      0.31521567
C       2.97170802      0.08601071      0.49155389
C       4.35689788      0.00535134      0.98257619
C       5.30220620     -0.82051808      0.35139253
C       6.61775717     -0.89719862      0.81694529
C       7.01039382     -0.14905175      1.92370077
C       6.08949652      0.67566955      2.56447694
C       4.77460570      0.75212961      2.09698924
C       2.38429732      1.31980474      0.17903493
C       1.06859467      1.39110846     -0.28913826
N      -1.76874180     -1.43098295     -2.09130831
C      -1.19195552     -1.09940480     -3.27903280
N      -1.33062769     -2.09136654     -4.12825877
C      -2.02071452     -3.02240653     -3.40918659
N      -2.33202663     -2.66157666     -2.16061234
H      -3.41300799      3.12744867      0.64071506
H      -1.92998040      2.31532286      0.20025094
H      -3.16407826      2.62746353     -1.03575090
H      -5.58141718      1.55028343     -0.62150558
H      -5.76297834      0.34788302      0.66823591
H      -5.45188700      2.03171506      1.07611191
H      -3.51180816      1.22647232      2.47780038
H      -2.15220113      0.36325337      1.75949033
H      -3.70823007     -0.45454411      1.96767437
H      -3.65739761      0.32818269     -1.75760568
H      -4.01951551     -1.93525866     -1.17103274
H      -1.72649813     -1.29436613     -0.02533006
H       0.34560490     -1.93945634     -0.27825322
H       2.61698466     -2.04693230      0.54960057
H       5.02063637     -1.40505224     -0.52228690
H       7.33474416     -1.53951955      0.31223259
H       8.03318476     -0.20863777      2.28638800
H       6.39178836      1.25875909      3.43046836
H       4.06891631      1.39447845      2.61995562
H       2.95558448      2.24012490      0.28497686
H       0.64255222      2.36240077     -0.52967117
H      -0.69849822     -0.15533532     -3.46710502
H      -2.30955791     -3.98664085     -3.80871610
