40
CC12CCc3c(ccc4cc(O)ccc34)C1CCC2O
C      -2.03774206     -1.81243660     -1.34939388
C      -2.13860816     -0.75968423     -0.23124449
C      -1.43700609     -1.25893721      1.04699391
C       0.07233786     -1.41235200      0.86766138
C       0.74696730     -0.23388561      0.19319489
C      -0.02680674      0.70064647     -0.53036625
C       0.60728483      1.78341829     -1.15372836
C       1.98778442      1.94076292     -1.08147658
C       2.77782439      1.01403741     -0.39552216
C       4.17112564      1.18423761     -0.35205465
C       4.97467436      0.26682992      0.31036750
O       6.32034232      0.48444268      0.31691554
C       4.41616675     -0.83379126      0.93768301
C       3.02930005     -1.01047249      0.90245173
C       2.17004079     -0.09507513      0.24594138
C      -1.53174074      0.59161106     -0.66201233
C      -2.25838509      1.64998943      0.19450599
C      -3.52301469      0.98738589      0.74722765
C      -3.60516944     -0.37442805      0.06382097
O      -4.34737166     -0.22607911     -1.14426804
H      -0.99925472     -2.04354377     -1.60585313
H      -2.52501771     -2.74571442     -1.04641061
H      -2.51644348     -1.47318633     -2.27442158
H      -1.60834522     -0.56403092      1.87878446
H      -1.86387503     -2.21813092      1.36619593
H       0.49390099     -1.55622591      1.86957051
H       0.28869072     -2.31684620      0.28695018
H       0.02262826      2.51473212     -1.70851483
H       2.44346294      2.79401956     -1.57925666
H       4.64110991      2.03461651     -0.84006025
H       6.74813752     -0.23513593      0.80901501
H       5.03108503     -1.56314846      1.45461467
H       2.62648644     -1.89014660      1.39772749
H      -1.79137171      0.76901381     -1.71621343
H      -1.64193768      2.01559985      1.02484121
H      -2.51363583      2.52223747     -0.41879941
H      -3.42461664      0.86608561      1.83189519
H      -4.40394423      1.61024141      0.56012835
H      -4.11624762     -1.11810536      0.68410054
H      -5.25881598      0.01144851     -0.90099084
