41
CC(=O)OC[C@H]1CCC=C(CCC=C(C)C)C1
C       6.47777727     -0.44504262      0.22262906
C       5.12004514     -1.05193340      0.40208391
O       4.79666067     -1.75167372      1.35090535
O       4.31572424     -0.70272540     -0.63891423
C       2.97434346     -1.21605119     -0.59029785
C       2.06103948     -0.29375549      0.22690575
C       1.98533535      1.11378286     -0.38094795
C       1.10733448      2.03381115      0.46847356
C      -0.15139723      1.37686778      0.95137132
C      -0.38210593      0.05285556      0.88348502
C      -1.68197161     -0.55173054      1.37532637
C      -2.55101085     -1.18058432      0.27644645
C      -3.06514319     -0.17214903     -0.71748142
C      -4.31425101      0.32105655     -0.82695947
C      -5.46484638     -0.02137207      0.07829294
C      -4.65373387      1.31086517     -1.91105963
C       0.65289550     -0.90472280      0.33914591
H       7.11861924     -0.73657143      1.05969122
H       6.39727479      0.64477998      0.20833669
H       6.92794425     -0.81052801     -0.70372895
H       2.96713353     -2.23999325     -0.19651020
H       2.62337798     -1.27816563     -1.62684854
H       2.48239229     -0.19266787      1.23668455
H       2.98402336      1.55672876     -0.47040350
H       1.57385054      1.05424997     -1.39731708
H       1.67229090      2.37876858      1.34273202
H       0.85098159      2.92315670     -0.11845510
H      -0.90618735      2.03896654      1.37077118
H      -2.27484782      0.20067555      1.91230041
H      -1.44053633     -1.32331186      2.11775661
H      -3.37439683     -1.72465476      0.74976674
H      -1.98115548     -1.94200648     -0.27014043
H      -2.31044193      0.17056331     -1.42600605
H      -5.91219261      0.89434059      0.47994113
H      -5.17662250     -0.63371017      0.93542090
H      -6.23442676     -0.56380805     -0.48038369
H      -4.99253234      2.25449562     -1.47099784
H      -3.79646885      1.53359344     -2.55508875
H      -5.45283457      0.91596066     -2.54699224
H       0.71002979     -1.78824518      0.98717228
H       0.31802960     -1.25011549     -0.64710645
