7
CC=O
C      -0.64251911     -0.00083082     -0.10327046
C       0.83547539      0.00645310      0.13797191
O       1.59924860     -0.83738110     -0.31918029
H      -1.16089629     -0.07519195      0.85547068
H      -0.91573418     -0.85227954     -0.73140145
H      -0.92752469      0.92701972     -0.60456311
H       1.21195028      0.83221058      0.76497272
