6
O=P12OB(O1)O2
O       2.02792439     -0.06639170      0.04149829
P       0.68855595     -0.01436312     -0.01522282
O      -0.46477650     -0.27515969      1.11928783
B      -1.37994376      0.04015018     -0.01438746
O      -0.46109621     -0.81566840     -0.81632692
O      -0.41066386      1.13143273     -0.31484892
