19
CCC#CC(C)C
C       3.14149337     -0.23679411     -0.34934563
C       2.40261751     -0.05467592      0.96556614
C       0.95513198      0.06967336      0.75002744
C      -0.22905308      0.17121749      0.57426923
C      -1.68252435      0.29717306      0.35898257
C      -2.31971196     -1.08270747      0.21433204
C      -1.96460162      1.15311692     -0.87343626
H       2.80493097     -1.13965861     -0.87059119
H       4.21769988     -0.32774645     -0.17153595
H       2.97748323      0.61625807     -1.01683299
H       2.77985143      0.83941989      1.47415219
H       2.60792325     -0.90924602      1.61973292
H      -2.12574656      0.79217610      1.23172835
H      -3.40330185     -0.99906475      0.07894241
H      -2.13895841     -1.69310744      1.10639111
H      -1.91136674     -1.62569523     -0.64589297
H      -1.52822972      2.15249067     -0.76450375
H      -3.04250127      1.27249898     -1.02631222
H      -1.54113607      0.70467145     -1.77960982
