12
O=c1cc(O)nc[nH]1
O      -1.39066277      2.22901983      0.34593221
C      -0.82532936      1.15412544      0.19030396
C       0.62892777      1.05666257      0.02708286
C       1.15004908     -0.16080895     -0.13652109
O       2.50289373     -0.30119857     -0.29277981
N       0.43898548     -1.32565755     -0.16449122
C      -0.83831867     -1.21679308     -0.01906257
N      -1.49203764     -0.03434990      0.15552043
H       1.21892464      1.96040621      0.04471069
H       2.59877871     -1.26633908     -0.38875952
H      -1.49773712     -2.09885206     -0.02738461
H      -2.49447386      0.00378513      0.26544867
