52
COc1c(C)cc([C@@]2(c3cccc(-c4cncnc4)c3)N=C(C)C(N)=N2)cc1C
C      -4.08546632     -2.73185973     -2.10477578
O      -4.50330464     -1.59214025     -1.35130986
C      -3.41171232     -0.84500229     -0.98102766
C      -2.98354890      0.20395153     -1.80795737
C      -3.67212923      0.52097453     -3.10425136
C      -1.85251750      0.94359999     -1.42946597
C      -1.17562653      0.68995533     -0.22261014
C       0.08412650      1.49331160      0.16633638
C       1.33678006      0.78299405     -0.38725816
C       1.82269445      1.06807231     -1.67313504
C       2.93863077      0.40325714     -2.17863857
C       3.58510695     -0.56503970     -1.40936889
C       3.12832423     -0.89001077     -0.12258264
C       3.80369907     -1.90910726      0.68809779
C       4.15154499     -1.71504120      2.01554954
N       4.77432450     -2.63139774      2.79061457
C       5.05891621     -3.79647475      2.19222373
N       4.78101775     -4.11680475      0.92067802
C       4.15494417     -3.15812559      0.20169482
C       1.99982098     -0.20658387      0.36681189
N      -0.00406997      2.88708401     -0.39117010
C       0.02926207      3.64118053      0.65268631
C      -0.02496385      5.12460077      0.65548904
C       0.13179978      2.86423146      1.91285741
N       0.16676607      3.40620230      3.16140767
N       0.17766555      1.60302941      1.66459949
C      -1.66015917     -0.34135582      0.60273256
C      -2.78880359     -1.09723571      0.25006302
C      -3.26672896     -2.18182831      1.17219457
H      -3.56126554     -2.43901230     -3.02046290
H      -4.98301030     -3.28708017     -2.39355577
H      -3.45500024     -3.39813134     -1.50668448
H      -3.50268462      1.56370118     -3.39383099
H      -3.29195124     -0.12579197     -3.90066818
H      -4.75539964      0.38840572     -3.01875083
H      -1.49183536      1.73493990     -2.08494013
H       1.32768044      1.81522743     -2.29058698
H       3.30528996      0.64160329     -3.17380963
H       4.46243823     -1.05676401     -1.82530982
H       3.94133841     -0.77371001      2.51806353
H       5.55970334     -4.54867322      2.79156848
H       3.92598312     -3.44617913     -0.82147815
H       1.61092250     -0.45470894      1.35415924
H       0.86377279      5.52491944      1.15016209
H      -0.06124003      5.50156836     -0.37006177
H      -0.91892783      5.45840313      1.18849068
H      -0.35449339      4.26248954      3.30778406
H       0.00042824      2.71586404      3.88792072
H      -1.14879538     -0.55713580      1.53966202
H      -2.98068549     -1.96973171      2.20811742
H      -4.35836775     -2.26241389      1.15568182
H      -2.83029335     -3.14222677      0.88206060
