44
Cc1ccc(OP(=O)(Oc2ccccc2)Oc2ccccc2C)cc1
C       5.31278425     -2.98270458     -1.26952379
C       4.18558161     -2.06783021     -0.89251854
C       4.36999885     -1.07677044      0.07716157
C       3.32786757     -0.20597941      0.40159472
C       2.09585575     -0.31053865     -0.24365337
O       1.14162225      0.58393714      0.14796026
P      -0.39096037      0.57466203     -0.35755383
O      -0.57539406      0.72847591     -1.84193896
O      -1.08263052      1.72016005      0.54409693
C      -0.81218565      3.05524360      0.45160454
C       0.02769787      3.62322268     -0.50385064
C       0.23884156      5.00458432     -0.51024038
C      -0.38809182      5.81592917      0.43477576
C      -1.23052596      5.24791846      1.38803659
C      -1.44249308      3.86892016      1.39469099
O      -0.97444011     -0.79117076      0.26961953
C      -2.27686958     -1.20272783      0.19882567
C      -3.26206868     -0.51020914     -0.50647861
C      -4.57254055     -0.99076133     -0.53119757
C      -4.90119256     -2.16218355      0.14569381
C      -3.91886200     -2.85896109      0.84837512
C      -2.59858933     -2.38817316      0.88083549
C      -1.54848395     -3.14980620      1.64026228
C       1.90824570     -1.28152635     -1.22330928
C       2.95191808     -2.15365893     -1.54858819
H       4.93257021     -3.95295458     -1.60606673
H       5.96667359     -3.17055279     -0.41137196
H       5.90428499     -2.53573895     -2.07442959
H       5.32567475     -0.97566237      0.58641100
H       3.48144346      0.55712600      1.16041224
H       0.52690549      3.02544936     -1.26056087
H       0.89204291      5.44810896     -1.25794575
H      -0.22198976      6.89011746      0.42542205
H      -1.72291361      5.87723185      2.12465059
H      -2.10145884      3.42901018      2.13891193
H      -3.04461096      0.40226118     -1.05363516
H      -5.33699166     -0.44987023     -1.08358166
H      -5.92203158     -2.53504727      0.12392506
H      -4.19038743     -3.77407167      1.36998926
H      -1.13180940     -2.52673350      2.43821598
H      -0.74466066     -3.46204846      0.96561470
H      -1.96212506     -4.05167709      2.10365825
H       0.97036274     -1.38349385     -1.76114906
H       2.79393553     -2.90150615     -2.32315037
