55
CC(C)C1(O)CCN2CC3c4ccccc4CCc4cccc(c43)C2C1
C       4.49595254     -0.79191232      1.81016262
C       3.90547649      0.55747618      1.37261586
C       5.04439082      1.58855627      1.35004155
C       3.11661817      0.46733824      0.02230758
O       3.99597048     -0.01813130     -1.00131570
C       2.57220571      1.84337812     -0.40487120
C       1.64159646      1.75393627     -1.61523259
N       0.52988880      0.81880029     -1.45744890
C      -0.47510788      1.26558585     -0.48989382
C      -1.76779156      0.40028517     -0.55814693
C      -2.79328155      0.80163188      0.51731796
C      -2.46472745      1.55454111      1.66049327
C      -3.44019654      1.95135555      2.58079362
C      -4.76876750      1.60159650      2.38451901
C      -5.11927422      0.83946993      1.27609689
C      -4.14365118      0.43277827      0.34923924
C      -4.53639361     -0.48068799     -0.78024844
C      -3.97973066     -1.87680635     -0.52648789
C      -2.48195871     -2.10363436     -0.63568966
C      -2.11175641     -3.46536711     -0.72413609
C      -0.79274958     -3.85509607     -0.90365847
C       0.18822316     -2.88511662     -1.01516413
C      -0.13057017     -1.51672313     -0.90785482
C      -1.47223853     -1.10589595     -0.65878500
C       1.01714625     -0.52302148     -1.09724037
C       1.95332655     -0.53892348      0.13423482
H       3.71207022     -1.53014539      2.00226013
H       5.17535153     -1.19843845      1.05397550
H       5.06122270     -0.68332541      2.74262786
H       3.20246624      0.87554900      2.15463216
H       4.66919348      2.59901368      1.16462310
H       5.55650300      1.61648646      2.31862541
H       5.79344904      1.35127625      0.58830631
H       4.69331380      0.64234815     -1.15009960
H       2.04458911      2.31622284      0.43240118
H       3.39658951      2.50973236     -0.68535593
H       2.22497570      1.45598291     -2.49626625
H       1.25697766      2.75359346     -1.85312201
H      -0.04490680      1.25320047      0.51573799
H      -0.75419747      2.30746765     -0.69836943
H      -2.20794796      0.67158397     -1.52958134
H      -1.44570800      1.85959265      1.87393927
H      -3.15643084      2.53586209      3.45219814
H      -5.52715603      1.90793859      3.09932801
H      -6.15854811      0.54620952      1.14562966
H      -5.63066168     -0.54397045     -0.83846487
H      -4.21562276     -0.07838084     -1.74719653
H      -4.46347151     -2.53637178     -1.26072120
H      -4.29713649     -2.22460933      0.46643803
H      -2.87598094     -4.23966882     -0.67170440
H      -0.53701955     -4.90739692     -0.98364366
H       1.21509043     -3.19488108     -1.20010974
H       1.58859959     -0.88061136     -1.96626965
H       1.37970391     -0.34708525      1.05021301
H       2.36209234     -1.55258844      0.23090055
