32
O=C(c1ccccc1)c1ccc2n1CCC2C(=O)O
O       0.98124759      0.08636765     -2.37570980
C       1.14905290     -0.04719649     -1.16448306
C       2.52608409      0.15755460     -0.64172549
C       2.76432240      0.89552645      0.52448309
C       4.07271023      1.08345017      0.97432959
C       5.14249170      0.54816918      0.25602647
C       4.90995992     -0.16833845     -0.91813828
C       3.60397573     -0.35860115     -1.37184970
C       0.07186278     -0.39729320     -0.25494250
C       0.09255099     -0.90177827      1.04756385
C      -1.24769396     -1.07710789      1.50747980
C      -2.04830551     -0.68934079      0.47007418
N      -1.24814040     -0.31819724     -0.56993863
C      -1.99517261      0.09188784     -1.74800773
C      -3.40581166     -0.44399937     -1.43839594
C      -3.48310657     -0.56089129      0.10927379
C      -4.07528247      0.68611716      0.73333698
O      -4.22213542      1.77604820      0.20253089
O      -4.45735382      0.49984756      2.01481253
H       1.94250783      1.34144355      1.07917291
H       4.25920466      1.65519728      1.88022172
H       6.16097546      0.69898747      0.60618679
H       5.74549197     -0.57341663     -1.48366992
H       3.42635065     -0.90792706     -2.29408665
H       0.98282705     -1.13196794      1.61996692
H      -1.56662733     -1.44426226      2.47450128
H      -1.56576789     -0.36669731     -2.64099608
H      -1.96267085      1.18389238     -1.79820637
H      -3.50325118     -1.44783379     -1.87378598
H      -4.18895542      0.17987107     -1.88043948
H      -4.08364260     -1.43137370      0.39042069
H      -4.77769826      1.38186226      2.29639543
