47
O=C(NCc1ccc(OC(F)(F)F)cc1)C1c2ccccc2C(=O)N1CCC(F)(F)F
O      -1.36187370     -0.75294464     -2.93545297
C      -1.16804365     -0.38711086     -1.77700009
N       0.09595510     -0.29113771     -1.23301801
C       1.26260647     -0.68846003     -1.98111290
C       2.51820113     -0.26622032     -1.26803896
C       3.29329485     -1.19712759     -0.56640685
C       4.45060535     -0.79849172      0.11328769
C       4.84377667      0.53935199      0.10832402
O       5.94023268      1.06779953      0.72665380
C       6.80737880      0.17792935      1.40815044
F       7.32555729     -0.74109797      0.56425977
F       6.16898988     -0.44895340      2.42089994
F       7.82981115      0.88904708      1.93382083
C       4.06643767      1.47189955     -0.58469560
C       2.91407233      1.07631750     -1.26738757
C      -2.33005659     -0.09260251     -0.79968952
C      -2.89671764     -1.36487963     -0.23384828
C      -3.48860118     -2.43589425     -0.88298555
C      -3.92769066     -3.51738828     -0.11048984
C      -3.77515894     -3.51815767      1.28844535
C      -3.18162355     -2.43555360      1.93859241
C      -2.75516777     -1.38070319      1.15389501
C      -2.12536014     -0.12406310      1.57075444
O      -1.87022208      0.19051837      2.71623654
N      -1.91082653      0.61809860      0.42208748
C      -1.44303059      1.99470570      0.42272941
C      -2.43152439      2.99582423      1.00968355
C      -3.59175816      3.26626569      0.08715590
F      -3.15909780      3.67594458     -1.12630918
F      -4.36020108      2.17335507     -0.09737317
F      -4.38266899      4.24109670      0.58762830
H       0.16715104     -0.22707924     -0.22286671
H       1.22378359     -0.24533611     -2.98295820
H       1.22708341     -1.77623860     -2.11033516
H       3.00503036     -2.24698518     -0.54511684
H       5.01435637     -1.56658814      0.63376091
H       4.36054114      2.51944476     -0.59750891
H       2.32653408      1.82169757     -1.79990574
H      -3.09728955      0.50134616     -1.30479287
H      -3.60602656     -2.44573756     -1.96357957
H      -4.39458509     -4.37117803     -0.59805789
H      -4.12679183     -4.36976555      1.86720380
H      -3.06247649     -2.41502726      3.01670257
H      -0.53956539      2.01107415      1.04421835
H      -1.14439797      2.27597278     -0.59247783
H      -1.90407221      3.94117567      1.18437053
H      -2.80657085      2.65585710      1.98099736
