40
CC(C)(c1ccccc1)C(C)(C)c1ccccc1
C      -0.19908719      1.07686341     -1.68048450
C      -0.45549674      0.63789226     -0.20493856
C      -0.07366952      1.90581950      0.62104364
C      -1.97210880      0.33560167     -0.01341852
C      -2.75052686     -0.22066715     -1.04740211
C      -4.11144135     -0.49507649     -0.87517409
C      -4.73126544     -0.22394658      0.33846810
C      -3.98852922      0.31739618      1.38053690
C      -2.62768827      0.59131874      1.20695770
C       0.45549915     -0.63790855      0.20493342
C       0.19907748     -1.07688631      1.68047516
C       0.07368413     -1.90583343     -0.62105752
C       1.97211098     -0.33561104      0.01342393
C       2.62769078     -0.59129161     -1.20695951
C       3.98852771     -0.31734764     -1.38053629
C       4.73126095      0.22397841     -0.33845510
C       4.11143747      0.49506734      0.87519562
C       2.75052648      0.22063868      1.04742077
H      -0.89686623      1.86943601     -1.98004191
H      -0.30953513      0.26191641     -2.40017388
H       0.80888678      1.48419803     -1.81491622
H      -0.08604977      1.73906740      1.70101125
H      -0.76643200      2.73153638      0.41350401
H       0.92783855      2.27041045      0.36794427
H      -2.31340517     -0.46445656     -2.01179790
H      -4.68412074     -0.92413877     -1.69335522
H      -5.78786487     -0.43733528      0.47290098
H      -4.46461958      0.52680854      2.33498195
H      -2.09162443      1.00155761      2.05837351
H       0.89685068     -1.86946331      1.98003347
H       0.30952099     -0.26194320      2.40016937
H      -0.80889876     -1.48421796      1.81489613
H      -0.92782707     -2.27042589     -0.36797278
H       0.76644498     -2.73154965     -0.41351064
H       0.08607967     -1.73907966     -1.70102456
H       2.09162771     -1.00151193     -2.05838499
H       4.46461678     -0.52672049     -2.33499030
H       5.78785658      0.43738649     -0.47288695
H       4.68411449      0.92411707      1.69338692
H       2.31340482      0.46440091      2.01182443
