21
CCC(=O)[O-].CCC(=O)[O-].[Co+2]
C      -1.11862685      0.08284485     -0.29528323
C       0.08287082     -0.18003283      0.58266677
C       1.34947647      0.03504943     -0.16503175
O       1.74252253      1.22257300     -0.32477724
O       2.06936874     -1.04361276     -0.66912829
C      -1.02303436     -0.41048012     -0.09964531
C       0.02943558      0.62604133      0.14243973
C       1.33801605     -0.01545969     -0.10135930
O       1.96595400      0.27975437     -1.12573190
O       1.80741768     -0.90835942      0.81806571
Co      0.00000000      0.00000000      0.00000000
H      -1.65573963      0.99528881      0.04357414
H      -0.82476814      0.29934120     -1.35303649
H      -1.81490096     -0.77888026     -0.30935790
H       0.09692344      0.54670454      1.43676817
H       0.07287357     -1.17927597      1.05360582
H      -0.65102518     -1.31545004     -0.58993796
H      -1.85659914     -0.01507257     -0.70506972
H      -1.44387271     -0.74646678      0.89119828
H      -0.13706406      1.55344093     -0.44139952
H      -0.02922786      0.95205198      1.21143997
