46
C=CC(=O)OCC1CC2CC1C1CCC(COC(=O)C=C)C21
C       7.66709715     -1.41866190     -0.02254826
C       6.39117134     -1.13479350     -0.31273904
C       5.65473380     -0.09951683      0.44270934
O       6.11049314      0.56557645      1.35750467
O       4.39860226     -0.02943662     -0.06300741
C       3.56273810      0.94042363      0.58374386
C       2.17919146      0.89881328     -0.06918599
C       1.21242722      1.94205178      0.53643907
C       0.00385134      1.09034030      0.97572297
C       0.70948959     -0.16368541      1.49760987
C       1.42338241     -0.43817745      0.16873933
C       0.24858392     -0.49417885     -0.83321500
C      -0.53693275     -1.80604661     -0.85995167
C      -1.99008527     -1.36232931     -0.95559381
C      -2.04755443     -0.15774152     -0.01345639
C      -3.27323163      0.72381246     -0.23979940
O      -4.44814852     -0.03982338      0.06408196
C      -5.60749863      0.64192503     -0.10838327
O      -5.72532054      1.79696477     -0.48120278
C      -6.72299795     -0.26440197      0.23664049
C      -7.99371661      0.14986704      0.15638203
C      -0.72670034      0.57867300     -0.28534324
H       8.19840827     -0.90072273      0.77188286
H       8.20754515     -2.17831164     -0.57696447
H       5.86105831     -1.65021408     -1.10408584
H       3.50358199      0.71689502      1.65501426
H       4.00105786      1.93678094      0.44957078
H       2.30640587      1.06831473     -1.14601208
H       1.65678732      2.44688160      1.40212730
H       0.93395039      2.70808022     -0.19469151
H      -0.64551561      1.59622900      1.69328911
H       1.39298957      0.04372723      2.32711691
H       0.02623484     -0.95996406      1.80411586
H       2.05650337     -1.32795779      0.15442734
H       0.57111225     -0.24284395     -1.85086961
H      -0.37782336     -2.39673783      0.04900177
H      -0.24812431     -2.43262404     -1.70969915
H      -2.67951005     -2.15816778     -0.65771353
H      -2.22906256     -1.06949444     -1.98520686
H      -2.08284316     -0.53548480      1.01686664
H      -3.22766212      1.59639805      0.42285852
H      -3.31668327      1.06383436     -1.28175442
H      -6.47272410     -1.26905336      0.55439345
H      -8.24399502      1.15845552     -0.16262887
H      -8.81226533     -0.51525772      0.40961266
H      -0.86900138      1.38158318     -1.01903773
