37
Cc1cccc2[n-]c(=S)[nH]c12.Cc1cccc2[nH]c(=S)[n-]c12.[Zn+2]
C      -0.86595746      2.16764406     -0.08952069
C      -0.73485164      0.68554631     -0.00066925
C      -1.84692820     -0.15680616      0.12098988
C      -1.68656464     -1.55419813      0.20256123
C      -0.41328546     -2.13777614      0.16428613
C       0.69242058     -1.31450128      0.04425485
N       2.00426913     -1.65458340     -0.01222203
C       2.65636831     -0.47982607     -0.12798717
S       4.30470054     -0.25120173     -0.24175367
N       1.76830059      0.57955970     -0.14386251
C       0.49789129      0.05851433     -0.03367707
C      -2.17689932     -1.27675972      0.24966202
C      -1.12451343     -0.22843072      0.05580476
C      -1.47231238      1.11902228     -0.16760052
C      -0.48908347      2.11116580     -0.35087409
C       0.86296128      1.77798589     -0.31481637
C       1.16516518      0.45332644     -0.09458847
N       2.38595633     -0.17380792     -0.00665498
C       2.14537241     -1.51474575      0.22455996
S       3.38475863     -2.61818449      0.39304505
N       0.82161504     -1.76355434      0.28684228
C       0.22871014     -0.55587890      0.09087192
Zn      0.00000000      0.00000000      0.00000000
H      -0.44842356      2.53100098     -1.03405939
H      -0.34185263      2.64699629      0.74357686
H      -1.91467517      2.47994371     -0.04702835
H      -2.84881455      0.25968174      0.15389397
H      -2.55923372     -2.19269951      0.29656048
H      -0.28761979     -3.21296065      0.22691256
H       2.02425639      1.54566594     -0.22225584
H      -2.07238727     -1.74485435      1.23382947
H      -3.18289083     -0.84781602      0.19211096
H      -2.09907889     -2.04379489     -0.52765533
H      -2.51975607      1.40480492     -0.20022926
H      -0.78907726      3.13966390     -0.52087387
H       1.63814846      2.51747883     -0.45206041
H       3.29331144      0.24437904     -0.09137312
