29
CC(=O)NC(Cc1ccc(O)cc1)C(=O)O
C      -1.65363406      1.28091233      2.86821866
C      -1.63224902     -0.07837057      2.22709403
O      -1.81431485     -1.11872916      2.85493821
N      -1.46770546     -0.08896426      0.86764817
C      -1.14816724     -1.32580794      0.12561597
C      -0.56561351     -1.00179174     -1.26749731
C       0.67897006     -0.14114152     -1.21629624
C       0.65516468      1.16894878     -1.71664509
C       1.79529902      1.97051226     -1.64943096
C       2.96215878      1.46425916     -1.09117199
O       4.05092726      2.28300511     -1.04623212
C       3.01104658      0.16435550     -0.60027433
C       1.86964010     -0.63821125     -0.66526596
C      -2.35080726     -2.27959763     -0.05182534
O      -2.57826778     -2.90748049     -1.07899156
O      -3.09834229     -2.47302351      1.05849479
H      -2.67739821      1.51811193      3.16895722
H      -1.29730607      2.05552285      2.18374807
H      -1.00218170      1.27171959      3.74624168
H      -1.14175763      0.77552822      0.44978322
H      -0.40554678     -1.87783274      0.71617828
H      -1.33151530     -0.50378527     -1.87740399
H      -0.31246168     -1.92698806     -1.80196869
H      -0.24704788      1.57587108     -2.16855993
H       1.77644241      2.98480543     -2.03867545
H       4.79948799      1.78560671     -0.67781661
H       3.92132811     -0.24064600     -0.16922855
H       1.92008908     -1.65723138     -0.28670299
H      -2.71623737     -2.03955744      1.86014254
