37
COc1ccccc1NC(=O)c1cc2ccccc2cc1[O-].[Na+]
C      -3.30737842     -1.97374148     -1.15144020
O      -3.46854140     -1.67174662      0.23594949
C      -3.74828527     -0.33866392      0.40670002
C      -5.09153500      0.00658791      0.58741427
C      -5.44355616      1.33588688      0.80332487
C      -4.45005869      2.31081335      0.85264750
C      -3.10365994      1.95831970      0.69426341
C      -2.73012977      0.62861032      0.47738839
N      -1.39055314      0.21901396      0.32548792
C      -0.23807343      0.97591236      0.32215881
O      -0.19129830      2.19345707      0.50431780
C       1.05484737      0.21059000      0.07752525
C       2.23551491      0.97966889      0.21567202
C       3.50612614      0.42555287      0.02360699
C       4.67954002      1.18857039      0.16195563
C       5.93454429      0.61022323     -0.03470611
C       6.03048086     -0.73640560     -0.37160753
C       4.87119254     -1.50179575     -0.51130904
C       3.60094286     -0.93181090     -0.31616862
C       2.41721333     -1.68624461     -0.45275170
C       1.10932308     -1.17449113     -0.27064982
O       0.09852391     -1.94437297     -0.42284811
Na      0.00000000      0.00000000      0.00000000
H      -4.28289727     -1.96815276     -1.64994234
H      -2.89429992     -2.98362253     -1.23017132
H      -2.62961260     -1.28314730     -1.66392043
H      -5.85298232     -0.76631705      0.56074272
H      -6.48522780      1.60935746      0.93897830
H      -4.71218029      3.35114868      1.02326370
H      -2.36001308      2.74600235      0.75055718
H      -1.21154604     -0.78287077      0.15113453
H       2.14951779      2.03077265      0.48075068
H       4.61410170      2.24132448      0.42506590
H       6.83176031      1.21140151      0.07564830
H       7.00250690     -1.19450873     -0.52617794
H       4.95390679     -2.55342741     -0.77462170
H       2.50178604     -2.74189451     -0.71823880
