31
CCSc1nnc(C(C)(C)C)c(=O)n1N
C       5.34042467     -0.57756849      1.35477317
C       3.84400265     -0.33763395      1.25334740
S       3.20331709     -1.07265613     -0.27864069
C       1.51990042     -0.56550608     -0.20200335
N       1.03473026     -0.13238930      0.91560284
N      -0.29453479      0.28240300      0.99650923
C      -1.08143353      0.16565957     -0.03088644
C      -2.54823408      0.63560542      0.06263458
C      -2.80874308      1.29902510      1.43298667
C      -3.49564307     -0.56625256     -0.06323286
C      -2.84660592      1.68094842     -1.02268498
C      -0.58134157     -0.43462441     -1.33392150
O      -1.34871694     -0.68711341     -2.25514795
N       0.77579347     -0.69374671     -1.35871484
N       1.33763749     -1.18103883     -2.59089458
H       5.57610840     -1.64702808      1.37838375
H       5.72631330     -0.13386716      2.27865221
H       5.87927008     -0.11962019      0.51824469
H       3.34389618     -0.78848592      2.11636600
H       3.64569596      0.73900472      1.25560555
H      -3.84458006      1.64797643      1.51592272
H      -2.63138552      0.59848112      2.25746008
H      -2.15491576      2.16546096      1.58725180
H      -3.46575920     -1.01745746     -1.05924996
H      -3.23268742     -1.35000954      0.65651566
H      -4.53477173     -0.27214732      0.12390660
H      -2.11018898      2.49243565     -0.99832477
H      -2.82762548      1.25431279     -2.02973211
H      -3.83977492      2.12334595     -0.88367770
H       1.86812570     -2.02648299     -2.36940921
H       0.55172637     -1.48103060     -3.17862817
