40
C=C(C)C(=O)OCCCCCCOC(=O)C(=C)C
C       6.35228290      1.62178895     -1.34264160
C       6.46454128      0.49552777     -0.61744928
C       7.79418216     -0.08623664     -0.24132707
C       5.27946252     -0.26804115     -0.12656460
O       5.37366315     -1.29197649      0.53481150
O       4.11662409      0.31801070     -0.50811009
C       2.93887089     -0.36728787     -0.06367256
C       1.72553529      0.39932487     -0.57864014
C       0.41708573     -0.26179582     -0.15120291
C      -0.79407186      0.51194948     -0.67430647
C      -2.10268916     -0.14789182     -0.24465072
C      -3.31512496      0.61804129     -0.76573880
O      -4.52351325     -0.05631334     -0.38286480
C      -5.01739060      0.26820658      0.83890170
O      -4.52112717      1.06650343      1.61956195
C      -6.26769535     -0.50100520      1.10246008
C      -6.89632742     -0.29799248      2.27281230
C      -6.77174751     -1.46033724      0.06994661
H       5.39004892      2.04466219     -1.61526843
H       7.23093046      2.15829944     -1.68699785
H       7.89965640     -1.09765588     -0.64765678
H       8.62644983      0.51274749     -0.62640654
H       7.89820166     -0.13427231      0.84774099
H       2.92681283     -0.40042285      1.03208532
H       2.93615344     -1.38836323     -0.46294746
H       1.77735799      0.46735709     -1.67255165
H       1.76690706      1.43257000     -0.21171083
H       0.38560098     -1.29149439     -0.52762480
H       0.37372882     -0.31620137      0.94338936
H      -0.76208839      1.54202919     -0.29893715
H      -0.75129105      0.56500535     -1.76897473
H      -2.14817093     -0.21418307      0.84906607
H      -2.14493160     -1.18185217     -0.60920102
H      -3.30062634      0.64274563     -1.86085853
H      -3.31824437      1.65982987     -0.42322089
H      -6.51489673      0.40281257      3.01167209
H      -7.80960231     -0.82647423      2.52563825
H      -7.69291734     -1.95787006      0.39232983
H      -6.99202870     -0.93870292     -0.86725534
H      -6.02961137     -2.24104137     -0.12692987
