18
Nc1ccccc1S(=O)(=O)O
N       0.70745625      1.88506506      0.49165184
C      -0.15000784      0.81268587      0.15695722
C      -1.40400284      1.08948034     -0.39988235
C      -2.25210769      0.05528512     -0.80986811
C      -1.84227314     -1.27272828     -0.70844671
C      -0.57195152     -1.56915775     -0.22115896
C       0.27049751     -0.52696155      0.18478031
S       1.93421673     -0.89704706      0.67072029
O       2.13433838     -0.28274363      1.96812890
O       2.18823636     -2.30238919      0.44083005
O       2.81341245     -0.04993410     -0.39221268
H       0.19787378      2.76221336      0.60578206
H       1.21977800      1.69376457      1.36314217
H      -1.74557231      2.11628606     -0.50913718
H      -3.23298184      0.28949507     -1.21770998
H      -2.50253104     -2.07388009     -1.03277998
H      -0.23870880     -2.60441270     -0.18375240
H       2.47432755      0.87497889     -0.40704449
