42
N#CCCN(CCO)c1ccc(N=Nc2ccc([N+](=O)[O-])cc2Cl)cc1
N      -6.24379517      3.60590096     -0.07232266
C      -5.75311752      2.57906877      0.15335683
C      -5.12626600      1.28226700      0.42337581
C      -4.13274050      0.93466296     -0.68539049
N      -3.50554816     -0.38168786     -0.42414419
C      -4.22319261     -1.54565928     -0.99825118
C      -4.20324280     -2.73567996     -0.02913425
O      -4.64699735     -2.31164379      1.26034733
C      -2.11320162     -0.38761871     -0.30048379
C      -1.47892157      0.52230919      0.56377075
C      -0.08810355      0.53993800      0.73001750
C       0.72185114     -0.35472914      0.02963350
N       2.11815792     -0.38257860      0.19544597
N       2.62480382      0.70245865     -0.16814227
C       4.01596607      0.67754657      0.04413626
C       4.84508868     -0.00124963     -0.86382804
C       6.23207293     -0.02349257     -0.69143255
C       6.80082973      0.64871167      0.39788911
N       8.25732807      0.62908576      0.58448491
O       8.93489266      0.00956547     -0.24714785
O       8.71973721      1.23367757      1.56156507
C       5.99484181      1.34292954      1.30824303
C       4.60866884      1.35680815      1.12305254
Cl      3.64667733      2.23487419      2.26062600
C       0.10977488     -1.28067342     -0.81276418
C      -1.28378348     -1.29498281     -0.97444333
H      -5.89790136      0.50750334      0.49836368
H      -4.61432291      1.31036145      1.39214392
H      -4.64609526      0.90617100     -1.65671940
H      -3.38795412      1.73578453     -0.78615260
H      -5.27613948     -1.26959284     -1.13992444
H      -3.84102932     -1.81759864     -1.98780093
H      -3.20115116     -3.15974911      0.08054064
H      -4.87126001     -3.52707113     -0.38143006
H      -4.09558346     -1.52666335      1.45259865
H      -2.06553180      1.22628025      1.14853390
H       0.36271446      1.25328019      1.41549467
H       4.39789169     -0.51839896     -1.71082123
H       6.84676867     -0.56332885     -1.40980405
H       6.42963646      1.87189635      2.15403587
H       0.72001398     -1.99839532     -1.35483916
H      -1.69183712     -2.03028759     -1.66043051
