13
CC(O)C(N)=O
C      -1.61563141     -0.14846410     -0.37588288
C      -0.14980278      0.25015215     -0.42146704
O       0.00133065      1.58712998      0.06021382
C       0.73772693     -0.70885568      0.38727449
N       2.01446680     -0.25106951      0.57162714
O       0.38331355     -1.79740425      0.82232101
H      -1.76950726     -1.15041222     -0.78855174
H      -2.22522200      0.56348808     -0.94212809
H      -1.99177614     -0.14249854      0.65335857
H       0.20258347      0.23031401     -1.45859601
H      -0.41512095      1.61824661      0.94035219
H       2.20741978      0.73422452      0.43033236
H       2.62021936     -0.78485105      1.17987268
