15
N#Cc1ccc(O)c(O)c1
N       3.98400170     -0.79818844     -0.48550265
C       2.85774990     -0.55517082     -0.34600951
C       1.47016193     -0.23982154     -0.17208870
C       1.07396058      1.09113643      0.03788945
C      -0.27745212      1.41082447      0.20889868
C      -1.22191498      0.39260624      0.16800068
O      -2.55694317      0.63706218      0.32771764
C      -0.82677196     -0.92739297     -0.04045980
O      -1.76268362     -1.92057113     -0.07894308
C       0.51091894     -1.25582630     -0.21128207
H       1.81841037      1.88550292      0.06906458
H      -0.56535918      2.44501761      0.37014248
H      -2.68113146      1.59256078      0.46308160
H      -2.61696573     -1.46488501      0.06192146
H       0.79401879     -2.29285444     -0.37243076
