40
CN1CCOC(c2ccccc2)c2ccccc2C1.Cl
C       3.25103845     -1.52486411      1.60598353
N       2.35413076     -1.08356848      0.65560162
C       1.73578371     -2.17542924     -0.16503614
C       0.73871890     -1.44174304     -0.83884590
O      -0.26010105     -1.42006943     -1.66490602
C      -0.77430014     -0.09061885     -1.46026712
C      -1.94904053     -0.31661157     -0.58700339
C      -2.89661033     -1.22217542     -1.01629830
C      -4.01588191     -1.49986248     -0.24656789
C      -4.20653486     -0.87780756      0.96368910
C      -3.26201753      0.02143641      1.38666192
C      -2.14002244      0.30201860      0.61916087
C       0.14057335      0.86020162     -0.84577426
C      -0.63510923      2.01805691     -0.94400309
C      -0.24078686      3.25598304     -0.50056271
C       0.97696982      3.40757119      0.07791958
C       1.78810807      2.31268163      0.20488681
C       1.39494940      1.09021485     -0.23542801
C       2.50492472      0.13014477      0.00324566
Cl      0.68474449      0.00000000      0.00000000
H       3.22961904     -0.84132297      2.50482280
H       2.95124126     -2.51699069      2.00049293
H       4.31402247     -1.61214983      1.31167533
H       1.45300751     -2.96255902      0.55765667
H       2.56363924     -2.59181013     -0.77374852
H       0.22492024     -0.96685901      0.05782905
H       1.41759160     -0.78504999     -1.46870823
H      -1.16172530      0.27794902     -2.44758255
H      -2.76749198     -1.71449852     -1.95049289
H      -4.73071098     -2.22049803     -0.63087259
H      -5.09692634     -1.10087574      1.57209717
H      -3.39358574      0.52946226      2.34883457
H      -1.44291231      1.01730667      1.03862702
H      -1.64063588      2.00928861     -1.39658837
H      -0.87307032      4.14192351     -0.59315652
H       1.30631513      4.37002388      0.43322158
H       2.75282728      2.43011241      0.66260544
H       3.21678603      0.71018976      0.68546493
H       3.17229676      0.08079899     -0.92463406
H      -0.68474449      0.00000000      0.00000000
