45
CC12CCC3c4ccc(O)cc4CCC3C1CC(O)C2O
C      -2.06421817     -1.67839487      1.50498671
C      -2.13226925     -0.67702837      0.33818945
C      -1.46734132     -1.29597551     -0.90997017
C       0.05891828     -1.28403899     -0.84331409
C       0.60908204      0.14068232     -0.65144768
C       2.13122520      0.12797744     -0.63732487
C       2.82556585     -0.13343008     -1.83320880
C       4.22048595     -0.16545794     -1.86359483
C       4.93054712      0.07036513     -0.69476252
O       6.29391902      0.05497576     -0.67521504
C       4.26799662      0.33671771      0.49710617
C       2.86485679      0.36103546      0.54076135
C       2.19040234      0.70537678      1.84311269
C       0.70998170      0.33410787      1.86954835
C       0.00865942      0.83302844      0.59633890
C      -1.52769014      0.70319994      0.68697614
C      -2.23689553      1.67989260     -0.28125358
C      -3.59414291      1.05877524     -0.61150043
O      -3.72185713      0.86358123     -2.02304927
C      -3.61621313     -0.30042410      0.10471965
O      -4.32747931     -1.27723992     -0.64077172
H      -2.68158436     -2.55981320      1.29581069
H      -1.05177955     -2.03894685      1.69478615
H      -2.43455013     -1.23214408      2.43472453
H      -1.81202292     -2.32833718     -1.04979417
H      -1.76411908     -0.75707624     -1.81681985
H       0.44274333     -1.71382831     -1.77730788
H       0.41234937     -1.94853756     -0.04642533
H       0.30971232      0.73631885     -1.52528356
H       2.27520424     -0.31479493     -2.75430088
H       4.72686622     -0.37166953     -2.80065325
H       6.61146728     -0.15408669     -1.56862875
H       4.85009593      0.52914138      1.39503741
H       2.29699676      1.78503174      2.00745974
H       2.69521593      0.19419422      2.67173915
H       0.62255750     -0.75113817      1.96910695
H       0.24950670      0.77377213      2.76210688
H       0.23654703      1.90774782      0.52453953
H      -1.84354027      0.98665086      1.70168228
H      -1.65463332      1.85509533     -1.19215985
H      -2.36575621      2.65205964      0.20842794
H      -4.42975792      1.68660997     -0.28569644
H      -3.70581907      1.74573157     -2.43557604
H      -4.12213430     -0.17743598      1.07089333
H      -4.28709893     -0.96227093     -1.56843287
