14
C1COCCO1
C       0.96909983      0.98965538     -0.42205475
C       1.31759677     -0.47864456     -0.18092854
O       0.31830104     -1.10628575      0.63631608
C      -0.96909981     -0.98965536      0.01228840
C      -1.31759679      0.47864457     -0.22883773
O      -0.31830108      1.10628579     -1.04608235
H       0.94984067      1.54733619      0.52142953
H       1.70834577      1.45430710     -1.08115147
H       1.38537762     -1.02548221     -1.12851270
H       2.27883556     -0.56328695      0.33448383
H      -1.70834580     -1.45430715      0.67138503
H      -0.94984056     -1.54733610     -0.93119592
H      -2.27883559      0.56328692     -0.74425008
H      -1.38537764      1.02548212      0.71874649
