17
O=S(=O)(O)C(Cl)(S(=O)(=O)O)S(=O)(=O)O
O       1.07170799     -1.69246911     -1.06498698
S       1.33419106     -0.86729411      0.09258331
O       2.57774865     -0.12518691      0.19109352
O       1.30856750     -1.89258732      1.35191661
C      -0.01550963      0.19782632      0.47695252
Cl      0.10159465      0.72779441      2.19707604
S       0.05940566      1.59807875     -0.58644094
O       0.53138789      1.24867716     -1.90832941
O      -1.12758693      2.41355266     -0.43426282
O       1.27844433      2.44460080      0.07194588
S      -1.53941754     -0.66466126      0.28398687
O      -1.37558063     -2.05405128      0.67221449
O      -2.65333249      0.08921879      0.82004460
O      -1.77161108     -0.65114944     -1.31306863
H       0.81416835     -2.71367414      1.10808037
H       2.10641187      2.32293783     -0.45050051
H      -2.70058965     -0.38161315     -1.50830492
