21
C=C(C)C(=O)OC(=O)C(=C)C
C      -2.04863299     -1.68287286     -0.01121036
C      -2.29510985     -0.36937249      0.13711886
C      -3.69217287      0.17341347      0.21956725
C      -1.21173057      0.66261865      0.24788921
O      -1.46944371      1.83084191      0.49209686
O      -0.00823796      0.10084796     -0.00178817
C       1.08671322      0.86783102      0.19604636
O       1.15896734      1.96997824      0.71647865
C       2.31314795      0.14855157     -0.28299591
C       2.26847612     -1.00842418     -0.96669706
C       3.61034683      0.82829227      0.04628667
H      -2.86271213     -2.39883757     -0.08168938
H      -1.04552863     -2.09329907     -0.05841616
H      -4.44457843     -0.61664228      0.12218857
H      -3.86993871      0.89812182     -0.58195892
H      -3.85643055      0.66845789      1.18243945
H       1.33950543     -1.50553395     -1.22513772
H       3.18074576     -1.49449736     -1.30105407
H       3.65314081      1.82016464     -0.41580703
H       3.71966732      0.94151537      1.13001957
H       4.47380563      0.25884494     -0.31420407
