42
CCN1c2cc(N(C)C)cc(C)c2NC(=O)c2cccnc21
C      -1.97176517      2.21283274     -2.52695470
C      -0.88550160      1.95362698     -1.48365042
N      -1.12875172      0.69826736     -0.74687163
C       0.00546425     -0.06489938     -0.36892443
C       1.26534863      0.55090100     -0.16292543
C       2.45087974     -0.15012358      0.11993864
N       3.67634587      0.50578108      0.29769753
C       4.84512213     -0.26086915      0.72622679
C       3.66060057      1.90854236      0.71564999
C       2.33143808     -1.54392175      0.15915906
C       1.09937040     -2.20924049     -0.00035059
C       1.08894689     -3.71338959      0.09985861
C      -0.07519405     -1.46087160     -0.22441431
N      -1.28268786     -2.16930795     -0.36032217
C      -2.57878982     -1.78399292     -0.14565590
O      -3.46763017     -2.62484607     -0.30792281
C      -2.94710232     -0.46206120      0.38973506
C      -4.09933243     -0.39331091      1.19190276
C      -4.54627849      0.83088109      1.66776362
C      -3.83178462      1.95268255      1.30827833
N      -2.73051930      1.91925586      0.52682784
C      -2.27840942      0.71511144      0.06887869
H      -2.94880322      2.40259842     -2.07352654
H      -1.71104692      3.08959390     -3.12863998
H      -2.07568362      1.35588447     -3.20119017
H       0.04755541      1.88330421     -2.05830934
H      -0.77764509      2.81199806     -0.80848119
H       1.30985681      1.63267595     -0.22380009
H       5.07894292     -1.06014971      0.01460309
H       5.73878698      0.37219824      0.76730734
H       4.69279453     -0.68679147      1.72399466
H       3.08030835      2.04023465      1.63577212
H       4.67354341      2.27819634      0.91158692
H       3.25428450      2.55136752     -0.07233542
H       3.20956658     -2.15789636      0.33741684
H       0.41186760     -4.03796926      0.89673437
H       2.08113379     -4.11252312      0.33622180
H       0.77744582     -4.15423918     -0.85254645
H      -1.22846122     -3.16647334     -0.51617522
H      -4.65079422     -1.29906578      1.43580479
H      -5.43101683      0.90443704      2.28937825
H      -4.13240517      2.94157153      1.64225972
