31
COC(=O)C1C(C)=CCCC1(C)C
C       3.56906198      1.11699301      0.76950159
O       2.36889989      1.04935245     -0.00091434
C       1.52284829      0.04437375      0.37842635
O       1.74350378     -0.73650787      1.29508430
C       0.26127266      0.07151587     -0.49728438
C      -0.02723228     -1.35170176     -0.96449726
C       0.88856268     -1.90498014     -2.02139817
C      -1.04892366     -2.07460296     -0.46989623
C      -1.99644533     -1.58182888      0.58319806
C      -1.57607070     -0.25939340      1.23037321
C      -0.95050862      0.74037686      0.22993348
C      -2.00716915      1.16818874     -0.81789783
C      -0.53320501      2.01672483      0.98937054
H       4.14450421      0.19177908      0.66572422
H       3.33865869      1.31633231      1.82074721
H       4.17203722      1.94417190      0.38492895
H       0.49362292      0.66845284     -1.39107306
H       0.60618326     -2.92018058     -2.31965825
H       1.92002658     -1.94173611     -1.65718950
H       0.85729239     -1.27579831     -2.91677683
H      -1.22958146     -3.08305951     -0.83647565
H      -2.98794219     -1.47068449      0.12817447
H      -2.09511727     -2.34381002      1.36509923
H      -2.44708505      0.18679136      1.72736572
H      -0.85510141     -0.47612754      2.02972958
H      -2.34301075      0.33481529     -1.44246047
H      -2.89314909      1.59211442     -0.33136740
H      -1.60178999      1.93335661     -1.49016120
H       0.14420804      1.79529786      1.82094582
H      -1.40691962      2.52312048      1.41602838
H      -0.03143101      2.72665391      0.32241948
