48
N#Cc1cccc(-c2c(C(=O)N3CCCCC3CO)cc3ccccn23)c1
N       5.43490695      3.87168068     -1.07652727
C       4.76113326      3.16507171     -0.44821528
C       3.95516077      2.27930278      0.33985964
C       3.97792354      2.36807434      1.73619087
C       3.20551083      1.49747136      2.50608038
C       2.40883739      0.53643650      1.88252104
C       2.38309660      0.43930587      0.48678951
C       1.54858849     -0.56976202     -0.16370018
C       0.20364087     -0.49469867     -0.52835915
C      -0.66100875      0.67890142     -0.36584255
O      -0.21248579      1.81942164     -0.45226984
N      -2.03356238      0.41845228     -0.18248653
C      -2.35436882     -0.46290605      0.94787940
C      -3.77104454     -1.01084437      0.88104036
C      -4.77378250      0.12632893      0.77628139
C      -4.44060817      1.00109358     -0.42417690
C      -2.99427977      1.53863338     -0.38707027
C      -2.76509289      2.33607346     -1.70093806
O      -1.88857634      3.44299471     -1.50658634
C      -0.13467123     -1.74564836     -1.12818056
C       0.98225577     -2.54585255     -1.09919838
C       1.25329633     -3.87366410     -1.53968264
C       2.48431131     -4.39207641     -1.37153149
C       3.55078310     -3.62817244     -0.74882226
C       3.29771731     -2.37557281     -0.33544406
N       2.01955045     -1.83044457     -0.50954997
C       3.15643389      1.31533354     -0.28379829
H       4.59517966      3.11578416      2.23102751
H       3.22088440      1.56983463      3.59102000
H       1.80603877     -0.13466879      2.49037401
H      -1.65251763     -1.29747206      1.01987750
H      -2.21794830      0.12669857      1.86425777
H      -3.98110788     -1.61182544      1.77253233
H      -3.87090864     -1.67151552      0.01119493
H      -5.78733211     -0.27773167      0.67364806
H      -4.75542828      0.72885081      1.69261765
H      -5.14907537      1.83734861     -0.46265008
H      -4.59003292      0.41320034     -1.33971120
H      -2.87174836      2.21430078      0.46956342
H      -2.36154772      1.70065092     -2.49707001
H      -3.70452424      2.76723651     -2.06292941
H      -1.05931950      3.07624012     -1.12643405
H      -1.09651767     -2.01793944     -1.54416871
H       0.46564801     -4.45391498     -2.00983391
H       2.71091749     -5.40055738     -1.70367499
H       4.52801603     -4.08363468     -0.63452763
H       4.05128155     -1.75582488      0.13305499
H       3.12637709      1.25000558     -1.37047711
