17
Nc1ccccc1C(=O)O
N      -0.58926315      2.02310335      0.79479032
C       0.12261937      0.86309535      0.43515541
C       1.52422079      0.92259157      0.43892888
C       2.29479813     -0.14263751     -0.03298753
C       1.67465106     -1.27458789     -0.55164122
C       0.28250559     -1.33675791     -0.60874702
C      -0.49890199     -0.26812633     -0.13516849
C      -1.98295483     -0.35447173     -0.18803712
O      -2.76914736      0.36681516      0.40196003
O      -2.42486280     -1.34924669     -0.98138920
H      -1.57765769      1.83542526      0.99131459
H      -0.15004964      2.57777050      1.52149632
H       2.02926813      1.81317011      0.80582576
H       3.37983013     -0.07870663     -0.00828785
H       2.27258861     -2.10278212     -0.92367694
H      -0.18722324     -2.22359364     -1.02758862
H      -3.40042112     -1.27106086     -0.93194730
