21
NC(=O)c1cccc(S(N)(=O)=O)c1
N       2.61909408      1.08931279      1.95362281
C       2.68414782      0.66077825      0.65671193
O       3.71428824      0.78316565      0.00678338
C       1.47490893      0.01031065      0.08525686
C       1.63618373     -0.83607308     -1.02136171
C       0.53343600     -1.47717336     -1.59147173
C      -0.74104572     -1.26807537     -1.06684156
C      -0.90428657     -0.40256918      0.01864913
S      -2.51567397     -0.14786741      0.70180804
N      -3.03956434      1.20300809     -0.14216148
O      -2.37625791      0.26630754      2.07850745
O      -3.37956567     -1.23288309      0.30143561
C       0.19563536      0.23481511      0.60435747
H       1.91366609      0.76235685      2.59844094
H       3.49215411      1.41129153      2.35311840
H       2.62836367     -1.00270992     -1.43890670
H       0.67212358     -2.13945617     -2.44317762
H      -1.59617186     -1.77456482     -1.50987164
H      -3.85500770      0.96628890     -0.70862467
H      -3.19861203      1.97972676      0.50028150
H       0.04218417      0.91401028      1.43808433
