32
Cc1nc2n(c(=O)c1CCCl)CCCC2.Cl
C       2.08393993     -2.29324901      0.73898657
C       1.06718868     -1.30563678      0.22835234
N      -0.23385606     -1.43994268      0.53907315
C      -1.19039429     -0.58376909      0.10612977
N      -0.85717110      0.45508236     -0.66898680
C       0.44240231      0.64679840     -1.01898071
O       0.68716076      1.63364345     -1.74343324
C       1.40641225     -0.23225131     -0.57173650
C       2.81835062     -0.01810851     -0.96142306
C       3.67561537      0.59581279      0.09651363
Cl      3.05245333      2.21444737      0.57801284
C      -1.90211032      1.34395477     -1.11471287
C      -2.87089758      1.56518310     -0.01535068
C      -3.47907926      0.30938665      0.53778241
C      -2.59281019     -0.86629216      0.52883801
Cl      0.68405000      0.00000000      0.00000000
H       2.82667072     -2.57635567     -0.02732936
H       2.54795082     -1.88094418      1.63447382
H       1.53400041     -3.26011338      0.95831791
H       3.28615791     -0.99808954     -1.22435793
H       2.89328053      0.60144851     -1.87974354
H       3.87944196     -0.03992121      0.97306217
H       4.69791784      0.80810419     -0.34234176
H      -2.44845692      0.98193636     -2.01265215
H      -1.49624044      2.33891257     -1.40528978
H      -3.72466199      2.17575250     -0.42106105
H      -2.40517117      2.22196676      0.74628034
H      -3.80825069      0.53730534      1.57712937
H      -4.41239169      0.05921019     -0.01806578
H      -2.96371592     -1.69982291     -0.10413445
H      -2.51373581     -1.29444889      1.57230566
H      -0.68405000      0.00000000      0.00000000
