31
CC(=O)[O-].CC(=O)[O-].N.N.N.N.[Pd+2]
C      -0.64964824     -0.05340447     -0.10161368
C       0.81511777      0.02371260      0.11103854
O       1.47859433     -0.99321778      0.42412347
O       1.51251897      1.21278479     -0.02518474
C      -0.66557199      0.02452392     -0.00326181
C       0.81142861     -0.00879783     -0.00702982
O       1.49139988     -1.07039287      0.01277612
O       1.54710346      1.17347132     -0.03359096
N       0.01686665     -0.00936105      0.25518119
N       0.02304924     -0.01045540      0.26468886
N       0.00151037      0.01110796      0.29496441
N       0.00822457     -0.01661803      0.28177264
Pd      0.00000000      0.00000000      0.00000000
H      -0.97025354     -1.04788073     -0.48722780
H      -0.97885816      0.77393101     -0.77632004
H      -1.20747114      0.08407458      0.85518424
H      -1.09311731      0.57484225     -0.84745526
H      -1.00704719     -1.04110641     -0.10943490
H      -1.08419546      0.34745962      0.98799663
H       0.90006809     -0.44075711     -0.08990252
H      -0.07440242      0.96630307     -0.08308389
H      -0.84253233     -0.51618490     -0.08219479
H       0.99606145      0.00063464     -0.09370079
H      -0.53295236     -0.82881170     -0.08766907
H      -0.48615832      0.83863246     -0.08331899
H      -0.48851339     -0.83599250     -0.09553319
H      -0.47900655      0.84078557     -0.10072517
H       0.96600958     -0.01590103     -0.09870605
H      -0.63404666     -0.74380566     -0.09597126
H      -0.34582192      0.89753946     -0.08907456
H       0.97164400     -0.13711577     -0.09672682
