27
CCCC(C)(O)CCC
C       2.98398713      1.23651750      0.68305349
C       1.77193887      0.91624815     -0.18016615
C       1.25819856     -0.50313821      0.08902275
C       0.04989726     -0.93406832     -0.77254383
C      -0.34319580     -2.37073694     -0.40449090
O       0.46539720     -0.98532098     -2.14510386
C      -1.16861785      0.01203622     -0.68972504
C      -1.74528103      0.21629418      0.71291413
C      -2.93628431      1.16347864      0.68638192
H       3.80700492      0.54494111      0.47650362
H       2.73630679      1.16921933      1.74723338
H       3.33562204      2.25290916      0.47985531
H       0.99042314      1.65290808      0.03242043
H       2.05122748      1.02794315     -1.23318748
H       2.08767674     -1.19758853     -0.10284581
H       1.01025703     -0.59930579      1.15335281
H      -1.18776043     -2.71259975     -1.01377939
H      -0.61396368     -2.46808496      0.65107973
H       0.48166795     -3.06355650     -0.60914956
H       0.60304038     -0.07536012     -2.45709760
H      -0.90555468      0.98682577     -1.12084864
H      -1.95736944     -0.37337661     -1.35095069
H      -0.98498649      0.63068751      1.38295333
H      -2.06906612     -0.74022554      1.13593030
H      -3.33637742      1.29717531      1.69635297
H      -2.64676074      2.14711710      0.30297316
H      -3.73742752      0.76906103      0.05319055
