23
CC(C)C(C)(C)C
C       1.85122412      0.21745337     -0.87950216
C       0.89603848     -0.36079004      0.17548459
C       1.34333960      0.14105413      1.55672191
C      -0.62339586     -0.10736014     -0.13332728
C      -0.99959313     -0.71695578     -1.50157632
C      -1.50686118     -0.79326066      0.93169188
C      -0.97973270      1.39091927     -0.16062907
H       2.88975913     -0.03048467     -0.63169366
H       1.65834610     -0.19703135     -1.87268922
H       1.78097771      1.30773913     -0.93824504
H       1.05206742     -1.44900618      0.17388611
H       0.77522366     -0.32988110      2.36349647
H       1.24183728      1.22663812      1.64789643
H       2.39747580     -0.10453387      1.72969746
H      -2.08028241     -0.65868004     -1.67724553
H      -0.71277682     -1.77302473     -1.55544280
H      -0.51649067     -0.18981456     -2.33045567
H      -2.56847026     -0.73211260      0.66449901
H      -1.40144953     -0.32293598      1.91454008
H      -1.25219915     -1.85416645      1.03205347
H      -0.41938154      1.92799693     -0.93227855
H      -0.78078581      1.87363287      0.80129440
H      -2.04487023      1.53460435     -0.37817648
