18
c1ccc2c(c1)CCN2
C       2.31050854     -0.67218833     -0.28173309
C       2.33428442      0.69701914      0.03032844
C       1.14455406      1.40118943      0.23827635
C      -0.05188475      0.72291159      0.10402457
C      -0.07048095     -0.64149619     -0.18533211
C       1.09773589     -1.35668678     -0.38297694
C      -1.48061840     -1.11985988     -0.18471603
C      -2.22720868      0.22635818     -0.22971009
N      -1.34251706      1.25701931      0.34308817
H       3.24623253     -1.20562719     -0.43040155
H       3.28754433      1.21100409      0.12460178
H       1.16397669      2.45133007      0.50668627
H       1.07691112     -2.41895246     -0.60112276
H      -1.72342940     -1.74310544     -1.04948130
H      -1.69606238     -1.65964214      0.74317350
H      -2.45898109      0.49330737     -1.26955407
H      -3.17355285      0.17768131      0.31854539
H      -1.43701202      2.17973793     -0.07305542
