46
CC(=O)C=C(C)NC1CCCCC1NC(C)=CC(C)=O
C      -4.65779410      2.64771335      0.42624323
C      -4.30626991      1.26020190      0.89424093
O      -5.06988395      0.61679859      1.60900823
C      -3.01511401      0.69787691      0.39959067
C      -2.27920673     -0.24230942      1.02363402
C      -2.66828562     -0.78636616      2.38438261
N      -1.08988473     -0.76393667      0.51330005
C      -0.63410352     -0.74466283     -0.89349522
C      -1.39424730     -1.78244399     -1.72736557
C      -0.98628021     -3.21890379     -1.40718853
C       0.51997955     -3.41615054     -1.53355229
C       1.29225728     -2.43255284     -0.66138578
C       0.90912353     -0.97744502     -0.96294737
N       1.57119474     -0.10575035      0.01591386
C       2.58114396      0.81834242     -0.23843265
C       3.45832648      0.57742215     -1.44707015
C       2.78129016      1.84829472      0.60667280
C       3.80159403      2.92214777      0.44204681
C       4.35395061      3.52501874      1.70621048
O       4.14445048      3.33204180     -0.66380443
H      -5.12248564      3.19756518      1.24953957
H      -5.35049372      2.58162661     -0.41631435
H      -3.76274318      3.19643431      0.11996809
H      -2.68762913      1.12129100     -0.54165254
H      -3.15146430     -0.03319264      3.01366720
H      -1.78237425     -1.11469238      2.94057413
H      -3.33362003     -1.64805693      2.27081569
H      -0.77565884     -1.59227368      1.02020919
H      -0.82354756      0.25358258     -1.30619594
H      -1.19462192     -1.59186349     -2.78977809
H      -2.47637941     -1.67494765     -1.58946894
H      -1.50265546     -3.90482399     -2.08850101
H      -1.30846740     -3.48056160     -0.39219433
H       0.81949353     -3.28856406     -2.58110078
H       0.78137616     -4.44205367     -1.25041462
H       2.36820060     -2.57370528     -0.82156854
H       1.11176069     -2.66563021      0.39589371
H       1.22991060     -0.73706630     -1.98429764
H       0.92258361      0.15664225      0.76465738
H       3.62367550     -0.49494001     -1.59844814
H       4.45575433      1.01316669     -1.34326914
H       2.98669218      0.98564597     -2.34645069
H       2.17202567      1.94486963      1.49888666
H       3.86559754      4.48450998      1.89355904
H       4.19066263      2.86243392      2.56086235
H       5.43216706      3.66926702      1.59382437
