28
O=C(O)c1cc(N=Nc2ccccc2)ccc1O
O       5.32972985      0.08883049      0.78965264
C       4.13886524      0.31465980      0.92709230
O       3.64529367      0.85977093      2.05019270
C       3.11430411      0.02694886     -0.09911186
C       1.75991396      0.30482643      0.13147229
C       0.79765904      0.02037486     -0.84731110
N      -0.56263815      0.31560108     -0.64859581
N      -1.03108233     -0.38654327      0.27486492
C      -2.39546547     -0.10282149      0.46870429
C      -3.33936940     -1.11810747      0.28079306
C      -4.69827487     -0.87528193      0.49443656
C      -5.12325259      0.38650685      0.90796946
C      -4.19177421      1.40357638      1.11135673
C      -2.83368679      1.15763139      0.89703069
C       1.20765327     -0.52410998     -2.06914020
C       2.55428420     -0.80385644     -2.30762793
C       3.50270180     -0.53086195     -1.32513657
O       4.79993695     -0.83597582     -1.64082830
H       4.42497629      0.99077420      2.62983623
H       1.43544576      0.74213470      1.07251613
H      -3.01015515     -2.10379679     -0.03743699
H      -5.42268413     -1.67067789      0.33973768
H      -6.18069163      0.57643255      1.07465367
H      -4.52053173      2.38663807      1.43809028
H      -2.10941616      1.95076438      1.06253352
H       0.46851337     -0.73467033     -2.83839288
H       2.86320099     -1.23235644     -3.25762287
H       5.37654412     -0.60641116     -0.87972865
