47
CC(=O)OCCN(CCC#N)c1ccc(N=Nc2c(Cl)cc([N+](=O)[O-])cc2Cl)cc1
C      -6.35945186     -0.34305619      2.35310971
C      -5.53793517      0.70539958      1.66838856
O      -5.98750581      1.73546260      1.18772144
O      -4.22913653      0.33466752      1.64977062
C      -3.32936398      1.27928976      1.03741042
C      -3.35967867      1.20343425     -0.49959982
N      -2.77249309     -0.05405912     -1.03388228
C      -3.61694635     -1.25724933     -0.91089549
C      -3.42997707     -2.19853724     -2.10284985
C      -4.32780412     -3.35042845     -1.97527941
N      -5.04310604     -4.25624892     -1.85588274
C      -1.38108654     -0.15734163     -0.92478962
C      -0.56188390      0.80753203     -1.53479867
C       0.83437723      0.74661985     -1.45416545
C       1.45576243     -0.28436875     -0.75180078
N       2.85633590     -0.36328395     -0.68773311
N       3.26801545      0.24085005      0.32834212
C       4.67448571      0.16076244      0.39104714
C       5.48337067      1.14950223     -0.20038005
Cl      4.78595723      2.49395206     -1.03837967
C       6.87882410      1.08552408     -0.12858911
C       7.48200576      0.02378156      0.55322733
N       8.94606660     -0.05012749      0.63385266
O       9.59651404      0.84632576      0.08091462
O       9.43873141     -1.00383179      1.25042907
C       6.70412076     -0.96437170      1.16505860
C       5.30984454     -0.88663705      1.08454544
Cl      4.39235230     -2.12330645      1.87511357
C       0.66054561     -1.26169225     -0.15358252
C      -0.73693575     -1.19718221     -0.23897815
H      -6.02602419     -0.45820076      3.38751713
H      -6.27578117     -1.28985580      1.81333016
H      -7.40913687     -0.03542271      2.35726557
H      -3.57709254      2.29411690      1.37229933
H      -2.32814456      1.06096494      1.42289505
H      -4.39036761      1.28164427     -0.86405069
H      -2.83626834      2.07509938     -0.90794605
H      -4.67247429     -0.95269928     -0.89112840
H      -3.44582378     -1.77219375      0.04227241
H      -2.39519697     -2.55069803     -2.16873363
H      -3.64094388     -1.66322851     -3.03610556
H      -1.00736588      1.61222129     -2.11515097
H       1.43766412      1.50570431     -1.94477895
H       7.47771136      1.86271071     -0.60085613
H       7.16642149     -1.78976051      1.70422203
H       1.13050192     -2.07653417      0.39132751
H      -1.30168368     -1.97170393      0.27027662
