33
C=CC(=O)OCCC(F)(F)C(F)(F)C(F)(F)C(F)(F)C(F)(F)C(F)(F)F
C       6.45455598     -0.84506373      2.14360091
C       5.58991526     -0.44762355      1.20169708
C       4.13523873     -0.63002308      1.38557634
O       3.60178555     -1.13254803      2.35974958
O       3.50781581     -0.14245957      0.28509219
C       2.07738851     -0.25552705      0.33287894
C       1.52339876      0.35440124     -0.94527517
C       0.00417742      0.44143190     -0.98046411
F      -0.34130826      1.06529955     -2.14095036
F      -0.39202082      1.26913876      0.02241364
C      -0.72102881     -0.89471415     -0.88002748
F      -0.11951033     -1.78302702     -1.73372352
F      -0.53774882     -1.42193546      0.36481464
C      -2.20635572     -0.84405544     -1.20760279
F      -2.70005409     -2.11498578     -1.08710789
F      -2.38228822     -0.51644323     -2.51922110
C      -3.00987689      0.09696809     -0.33094733
F      -2.71946106     -0.12975672      0.97765137
F      -2.64530747      1.38217590     -0.58194403
C      -4.49392540     -0.06499817     -0.57437910
F      -4.89168166     -1.33812133     -0.29241052
F      -4.78657730      0.13573102     -1.89061064
C      -5.26312937      0.91777928      0.28654295
F      -5.03761947      0.72950863      1.60763743
F      -6.60109236      0.79370186      0.09780739
F      -4.94978025      2.20420651      0.00708628
H       7.52277807     -0.71165084      2.00987080
H       6.11718597     -1.31082906      3.06615911
H       5.92670055      0.01636242      0.28294186
H       1.69738187      0.28254128      1.20892453
H       1.81202252     -1.31561887      0.40172243
H       1.93540102      1.36532862     -1.06178465
H       1.89302028     -0.20177715     -1.81571879
