22
Clc1ccccc1-c1ccccc1
Cl      0.87805863      2.44580522      1.21674109
C       1.55151927      1.03785122      0.46753578
C       2.94618890      0.96853653      0.36666545
C       3.55342737     -0.13169533     -0.23700120
C       2.76886093     -1.16422175     -0.74213284
C       1.37691066     -1.09683898     -0.64261068
C       0.74106832      0.00272191     -0.03547301
C      -0.72642022      0.02021258      0.04505940
C      -1.50217585      0.31375781     -1.08739555
C      -2.89714850      0.31975012     -1.01604750
C      -3.53493916      0.02962361      0.18816322
C      -2.77991787     -0.26647624      1.32100236
C      -1.38499281     -0.27251174      1.24952957
H       3.56429393      1.77347871      0.75649937
H       4.63669109     -0.18177664     -0.31349058
H       3.23764772     -2.02469880     -1.21353264
H       0.77921942     -1.91622435     -1.03955300
H      -1.01888910      0.54731272     -2.03382827
H      -3.48438655      0.55407355     -1.89999078
H      -4.62027467      0.03690871      0.24461165
H      -3.27526327     -0.49068164      2.26200487
H      -0.80947823     -0.50490723      2.14324330
