42
CCOC(=O)C(Cc1ccc(O)cc1)NC(=O)c1ccccc1
C      -1.30857346      5.12559268     -0.48324021
C      -2.17497920      3.88676756     -0.60925593
O      -1.44706966      2.83763612     -1.26448189
C      -0.67744341      2.05393489     -0.45628292
O      -0.56750171      2.18809545      0.75830999
C       0.05901630      0.99099692     -1.27494424
C      -0.91759053      0.01683652     -1.95725361
C      -1.71423396     -0.84618934     -1.00120345
C      -2.94509093     -0.40693384     -0.49224920
C      -3.66144187     -1.19617444      0.41089661
C      -3.14707609     -2.42764869      0.80275412
O      -3.81212745     -3.22777605      1.68397134
C      -1.93354684     -2.88285354      0.30403149
C      -1.21828328     -2.09482228     -0.59782327
N       1.02537666      0.31494264     -0.40666376
C       2.09881504     -0.37854054     -0.90833729
O       2.34902603     -0.43952405     -2.10682854
C       2.97618093     -1.05687083      0.08440323
C       2.49340046     -1.50465780      1.32141157
C       3.35454895     -2.14432562      2.21645730
C       4.69279247     -2.34550542      1.87829647
C       5.17369291     -1.91625222      0.64190451
C       4.31674463     -1.27763844     -0.25606515
H      -0.94062415      5.43883597     -1.46579773
H      -1.87299336      5.94994483     -0.03837286
H      -0.42915598      4.92890971      0.13803809
H      -3.04638085      4.10890945     -1.23387229
H      -2.55377707      3.55968785      0.36585490
H       0.63674063      1.52136906     -2.04255499
H      -1.61774031      0.56994143     -2.59671978
H      -0.36376410     -0.64190291     -2.63891738
H      -3.35733689      0.55279191     -0.79571058
H      -4.61051338     -0.83538640      0.79410094
H      -4.64102373     -2.78859857      1.93468666
H      -1.54559414     -3.84899450      0.61359368
H      -0.26947092     -2.46140487     -0.98524222
H       0.89941101      0.43922603      0.59251055
H       1.44832273     -1.39057730      1.59543406
H       2.97895888     -2.49427939      3.17513770
H       5.36006281     -2.84590108      2.57598836
H       6.21433296     -2.08155788      0.37431260
H       4.69590986     -0.95010299     -1.22210349
