26
CC(C)C(NC(N)=O)NC(N)=O
C      -0.77958623     -1.90596582      1.19233807
C      -0.96651872     -0.84516427      0.10434438
C      -0.81224387     -1.48812965     -1.27909476
C      -0.04029385      0.38784001      0.31377412
N       1.35931089      0.07993766      0.12764930
C       2.14215512     -0.32357861      1.16468329
N       3.38499085     -0.68660550      0.75614247
O       1.81863258     -0.36702084      2.34011109
N      -0.33011474      1.46004356     -0.61017293
C      -1.47448744      2.19007325     -0.47922132
N      -1.50344096      3.23989907     -1.34066582
O      -2.39127920      1.97272320      0.29533805
H      -0.88038853     -1.46500731      2.18932376
H       0.19858229     -2.39192632      1.12418945
H      -1.54100924     -2.68817462      1.09856037
H      -2.00766893     -0.50792045      0.18003118
H      -0.97453109     -0.75756745     -2.07778522
H       0.18054147     -1.92938589     -1.41365358
H      -1.54859021     -2.28845727     -1.41225461
H      -0.18817713      0.77852895      1.32881241
H       1.61708534     -0.29227459     -0.77181733
H       4.00336928     -0.87767509      1.53621351
H       3.80220058     -0.11160451      0.03890751
H       0.46702039      2.04457114     -0.80299710
H      -2.39820680      3.71547293     -1.33880913
H      -1.13735185      3.05736842     -2.26394716
