30
CC(C)C(=O)OCCc1ccccc1
C       3.31769439      0.71965446     -1.68411712
C       2.55698216     -0.31919372     -0.86472499
C       3.48515312     -1.43265517     -0.39510411
C       1.88639981      0.32778756      0.33286058
O       2.21511021      1.39378811      0.83428274
O       0.86293561     -0.45822322      0.76928444
C       0.13124044      0.03510738      1.90549767
C      -0.90107389      1.09114422      1.50305743
C      -2.03380439      0.51103573      0.68816984
C      -3.13220879     -0.08661284      1.32134388
C      -4.17062290     -0.63525832      0.56706858
C      -4.11988926     -0.59441885     -0.82499329
C      -3.03073273     -0.00561861     -1.46448276
C      -1.99141508      0.54369471     -0.71224109
H       4.13148564      1.17011646     -1.10497913
H       3.75088851      0.26585495     -2.58155243
H       2.65080655      1.52869431     -2.00174793
H       1.77066634     -0.73682449     -1.50588455
H       3.97032040     -1.92212463     -1.24586788
H       2.93180727     -2.19624576      0.16218305
H       4.26638142     -1.04499013      0.26825081
H       0.82775023      0.44156272      2.64889767
H      -0.35575985     -0.82892102      2.37126846
H      -1.31859302      1.55333609      2.40614075
H      -0.42893720      1.90004479      0.93327078
H      -3.18696861     -0.12749633      2.40673097
H      -5.01970307     -1.09500906      1.06591829
H      -4.92884530     -1.02169139     -1.41144242
H      -2.99012277      0.02574415     -2.55001769
H      -1.14694525      0.99771789     -1.22556443
