42
CN(C)C(=O)Nc1ccc(-n2nc(C(C)(C)C)oc2=O)c(Cl)c1
C       6.43308413      1.00646320     -1.02183939
N       6.14860476     -0.20690853     -0.26528320
C       7.30502218     -0.85484382      0.33267982
C       4.89067157     -0.55866348      0.22741299
O       4.76413533     -1.30528257      1.19456992
N       3.84063034     -0.02608765     -0.48852416
C       2.47121656     -0.07382469     -0.15887222
C       1.98594995     -0.43617790      1.08978177
C       0.60537651     -0.44754537      1.34482143
C      -0.34437424     -0.09156070      0.36896655
N      -1.72948174     -0.13809410      0.69873541
N      -2.68586409      0.13971097     -0.23372778
C      -3.79654878     -0.01368293      0.40965588
C      -5.19358516      0.16244762     -0.13165662
C      -5.94332079      1.18400294      0.73383441
C      -5.14409024      0.67191867     -1.58029471
C      -5.91121136     -1.19269765     -0.09551861
O      -3.67934749     -0.37834762      1.70003769
C      -2.33163262     -0.45897354      1.90718227
O      -1.85171327     -0.75722154      2.98811647
C       0.16659555      0.29153429     -0.89166795
Cl     -0.79351393      0.80229654     -2.24517434
C       1.55400215      0.29895247     -1.14054476
H       7.00567982      0.73534120     -1.91366314
H       5.53474447      1.55098046     -1.31829751
H       7.03556637      1.67428572     -0.39633296
H       7.65500933     -0.24726284      1.17296759
H       7.05699574     -1.85701404      0.69488299
H       8.09722134     -0.94057932     -0.41706518
H       4.06230066      0.20818868     -1.44359614
H       2.65385859     -0.71440100      1.90110123
H       0.31164805     -0.75348225      2.34559924
H      -6.04557643      0.83770734      1.76885850
H      -5.41044732      2.14173929      0.76357381
H      -6.95104922      1.36931150      0.34554706
H      -4.61603692     -0.03268902     -2.23363967
H      -6.15226076      0.81073550     -1.98681031
H      -4.62208931      1.63388342     -1.64610670
H      -5.36817200     -1.94307197     -0.68199252
H      -6.92575683     -1.11522186     -0.50234758
H      -5.99132416     -1.57774471      0.92764029
H       1.90908327      0.60187930     -2.12300985
