18
NC(=O)c1ccc(Cl)c(N)c1
N       2.81050149      1.00364763     -0.45540189
C       2.31633903     -0.22730192     -0.12312210
O       3.06379621     -1.18405836      0.03233283
C       0.84918117     -0.34428268      0.08319368
C       0.37534725     -1.37857322      0.89870745
C      -0.99214882     -1.50459119      1.14388443
C      -1.88769966     -0.61016586      0.55416877
Cl     -3.57383610     -0.78948690      0.89523485
C      -1.43670484      0.39287370     -0.32516730
N      -2.30557752      1.37195173     -0.84346591
C      -0.05711045      0.53971733     -0.52065126
H       3.82010285      1.08262111     -0.45401140
H       2.28491664      1.85077304     -0.29243238
H       1.07297526     -2.07649362      1.35878039
H      -1.35095837     -2.29512699      1.79784892
H      -2.01386237      1.76798305     -1.73124153
H      -3.27700156      1.06323216     -0.85444825
H       0.30173980      1.33728096     -1.16420929
