31
O=[N+]([O-])c1ccc(O/N=C/c2cc(Br)c(O)c(Br)c2)c([N+](=O)[O-])c1
O      -5.95581600     -2.27517978      0.41719902
N      -5.81859513     -1.04505986      0.38104692
O      -6.72815169     -0.22638538      0.57022409
C      -4.47852005     -0.51576786      0.09502528
C      -3.39860897     -1.39951113     -0.04627212
C      -2.11972265     -0.89888670     -0.32015444
C      -1.90556477      0.48032905     -0.44255518
O      -0.67964377      1.01679234     -0.75656530
N       0.35454109      0.19784603     -0.28503555
C       1.47806055      0.82009649     -0.44930700
C       2.76533459      0.22287191     -0.04846216
C       3.93851466      0.95062175     -0.26494336
C       5.16883827      0.40211279      0.10682410
Br      6.73687503      1.42309075     -0.20613913
C       5.22768288     -0.86610618      0.69239221
O       6.44272573     -1.38739315      1.04982379
C       4.04686581     -1.58514611      0.90532008
Br      4.08944012     -3.30746806      1.69722064
C       2.81405758     -1.04583253      0.53712195
C      -2.99993691      1.34167858     -0.30376381
N      -2.81650695      2.77566879     -0.44339789
O      -1.92552401      3.31166878      0.22772617
O      -3.59300797      3.36403920     -1.20778318
C      -4.29151259      0.86465622     -0.03689595
H      -3.53289178     -2.47645113      0.04742841
H      -1.29495705     -1.59773308     -0.44648569
H       1.50964695      1.83044419     -0.89788978
H       3.89944868      1.93799827     -0.71893669
H       6.29351839     -2.26669519      1.44246238
H       1.89718121     -1.60610657      0.70505963
H      -5.12377123      1.55980759      0.06317792
