30
C=CCC1(c2ccccc2)C(=O)NC(=O)NC1=O
C       3.73837043      0.63480413      0.98102499
C       2.81630310      0.93934330      0.05955799
C       1.34377822      1.11081199      0.35715866
C       0.42356813     -0.03805177     -0.14392011
C      -1.04246617      0.37709831      0.17124193
C      -1.65074550      0.04860366      1.39835722
C      -2.96204546      0.43958487      1.68345313
C      -3.68831029      1.18158212      0.75838114
C      -3.09961516      1.54504029     -0.44778476
C      -1.78867218      1.15561877     -0.73575010
C       0.60287911     -0.24182647     -1.65537407
O       0.95516666      0.64073942     -2.43805028
N       0.28741673     -1.48133745     -2.14148965
C       0.43174691     -2.62652691     -1.42797118
O       0.58186323     -3.71023055     -1.98257031
N       0.49953692     -2.50683768     -0.07765420
C       0.78096166     -1.34223791      0.58531924
O       1.23298802     -1.39915006      1.72918066
H       4.78689529      0.54565077      0.71337138
H       3.47162725      0.46332666      2.02055795
H       3.13833232      1.11422612     -0.96659024
H       1.03722221      2.06379234     -0.09671486
H       1.20820510      1.25010751      1.43926245
H      -1.11602418     -0.50556076      2.16826113
H      -3.41202259      0.17086497      2.63631695
H      -4.70628284      1.48861807      0.98338758
H      -3.65724224      2.14246084     -1.16521681
H      -1.36291581      1.48991297     -1.68083953
H       0.40568387     -1.59483955     -3.13936487
H       0.74379727     -3.35558801      0.41445857
