21
CC(=O)C(=O)Nc1ccccc1
C       4.06804614     -0.80139561      0.06386283
C       2.91284221      0.11656361     -0.19896785
O       3.02510350      1.27118525     -0.60073319
C       1.51393902     -0.44798522      0.05858675
O       1.40145522     -1.59544232      0.45789956
N       0.53276315      0.48079278     -0.21587047
C      -0.85908820      0.32832565     -0.10020080
C      -1.65487096      1.42889669     -0.44210579
C      -3.04731352      1.35554663     -0.35358922
C      -3.65593610      0.18017327      0.07787595
C      -2.87179767     -0.91915559      0.41988341
C      -1.47784239     -0.84617967      0.33142590
H       5.00368669     -0.28022169     -0.15773258
H       4.07404908     -1.09811091      1.11556970
H       3.99690903     -1.68089340     -0.58079859
H       0.88328816      1.37986209     -0.54067620
H      -1.20363627      2.35776387     -0.78172914
H      -3.65515815      2.21585394     -0.62149920
H      -4.73885090      0.11956270      0.14794164
H      -3.34251826     -1.83924378      0.75737610
H      -0.90506975     -1.72589830      0.60760016
