20
CCC(=O)OC(C)C
C       3.25492035      0.56447488     -0.62553150
C       2.11111796     -0.35811405     -0.24263134
C       0.81630360      0.39409715     -0.04826371
O       0.67141872      1.60129098     -0.17309377
O      -0.16826486     -0.48738272      0.28839559
C      -1.47526043      0.07564839      0.50787966
C      -2.22874709     -0.88163892      1.42333148
C      -2.19697538      0.22613611     -0.82649414
H       3.42877580      1.31799269      0.14984149
H       4.17791974     -0.00787231     -0.75972393
H       3.03912832      1.09085732     -1.56125715
H       2.35709766     -0.87218387      0.69248082
H       1.96474136     -1.10143980     -1.03338694
H      -1.39544870      1.04657832      1.01178194
H      -1.69362684     -1.00119962      2.37167584
H      -2.30175437     -1.87920518      0.97598738
H      -3.23825963     -0.51716808      1.63643686
H      -2.25026526     -0.73321097     -1.35303581
H      -1.65952053      0.91546440     -1.48572200
H      -3.21330041      0.60687528     -0.68626631
