47
CC1(C)C(C=C(Cl)Cl)C1C(=O)OC(C#N)c1ccc(F)c(Oc2ccccc2)c1
C      -6.41654549     -0.78083404      0.31587027
C      -4.98033887     -0.65462115      0.76439110
C      -4.67271171     -1.47169800      1.99902470
C      -4.21307325      0.64805288      0.59450719
C      -4.88144912      1.84789322      0.06746919
C      -4.39835420      2.74287445     -0.80736341
Cl     -2.82326712      2.59790689     -1.49775741
Cl     -5.35393499      4.10336245     -1.27731961
C      -3.92909830     -0.52035242     -0.32898178
C      -2.65415261     -1.27039462     -0.24864084
O      -2.60457401     -2.47975848     -0.40249520
O      -1.59836564     -0.45594847     -0.00945741
C      -0.34654868     -1.14616417      0.16489102
C      -0.22838652     -1.65944411      1.54833876
N      -0.14674047     -2.04166817      2.64221401
C       0.78376474     -0.17182324     -0.14948963
C       0.69170261      1.19652023      0.16908685
C       1.74708953      2.06809361     -0.11348066
C       2.90977776      1.57973943     -0.69849851
F       3.90073534      2.43677071     -0.98214441
C       3.03329939      0.22317127     -0.99227210
O       4.15303347     -0.29645416     -1.59669176
C       5.33432232     -0.21697761     -0.89239687
C       6.48505555      0.05034184     -1.63726158
C       7.72818258      0.10883359     -1.00662548
C       7.82334473     -0.11456501      0.36747283
C       6.67628052     -0.40085370      1.11012873
C       5.43136439     -0.45845775      0.48195118
C       1.97009100     -0.64781711     -0.73897558
H      -6.61075428     -0.25938660     -0.62710654
H      -7.08834651     -0.37084036      1.07833669
H      -6.67236434     -1.83536056      0.16705650
H      -5.35088598     -1.19353035      2.81338573
H      -4.80412454     -2.53868409      1.79140247
H      -3.64828271     -1.31935116      2.35731547
H      -3.47136474      0.88064784      1.35327266
H      -5.87608185      2.03375731      0.47184192
H      -4.29669797     -0.45726842     -1.34922636
H      -0.27992186     -1.97110027     -0.55572420
H      -0.20721047      1.59895131      0.63360231
H       1.66870495      3.12690265      0.11785512
H       6.41192576      0.22038727     -2.70757751
H       8.62153119      0.32564299     -1.58776689
H       8.79224251     -0.07120257      0.85953370
H       6.75383687     -0.58480078      2.17960553
H       4.55368537     -0.70057010      1.07359678
H       2.08360562     -1.69992247     -0.99628663
