26
CCN(/N=C/c1ccc([N+](=O)[O-])o1)C(N)=O
C      -2.26206556      1.79756069     -1.40636846
C      -2.40666580      1.43909673      0.06421899
N      -2.10166426      0.03397967      0.31938493
N      -0.81226029     -0.48219999      0.44395331
C       0.21041225      0.30814925      0.43267675
C       1.53628063     -0.23115371      0.56916874
C       2.00497060     -1.52253663      0.74435225
C       3.41959304     -1.44374214      0.81536012
C       3.71521962     -0.10883292      0.67847818
N       4.95881820      0.59488991      0.66775977
O       4.92519028      1.82336432      0.52344592
O       5.97877974     -0.09367344      0.80487793
O       2.59067570      0.64200498      0.52850680
C      -3.16216778     -0.88271766      0.28563894
N      -2.77726807     -2.16802961      0.53085525
O      -4.33642683     -0.61066610      0.06269154
H      -1.24039848      1.63033458     -1.76099716
H      -2.51063317      2.85117479     -1.56639932
H      -2.93147551      1.19079902     -2.02510680
H      -1.78015025      2.07491522      0.69655722
H      -3.43954041      1.64070782      0.37216730
H       0.14915719      1.40165321      0.31977745
H       1.38974313     -2.41047740      0.81407818
H       4.12728684     -2.25097502      0.94920692
H      -3.45025697     -2.88513474      0.30776921
H      -1.79515386     -2.33849082      0.36377029
