41
CCCCCCCCCCC(C(=O)O)C(=O)O
C      -6.44545138     -0.68151574     -0.67775052
C      -5.63962294      0.39105167      0.03877815
C      -4.13169309      0.29330863     -0.20798108
C      -3.49989698     -0.96276815      0.39804179
C      -1.99093522     -1.06474471      0.14603584
C      -1.18224065      0.02522857      0.85467358
C       0.33169550     -0.21254589      0.80627751
C       0.91472290     -0.11760829     -0.60623650
C       2.42789400     -0.35768455     -0.65496889
C       3.24311225      0.74982496      0.02449210
C       4.75793520      0.55260646     -0.15671216
C       5.48876840      1.80680944      0.23395159
O       6.19182680      1.98435791      1.21407690
O       5.30055295      2.81232928     -0.64824096
C       5.25972098     -0.62195422      0.64109628
O       4.74494899     -1.12153485      1.62795062
O       6.40160894     -1.13811779      0.13996877
H      -6.23104886     -0.68331519     -1.75107693
H      -7.51645623     -0.49582549     -0.54691019
H      -6.23264725     -1.67778180     -0.27974889
H      -5.84603676      0.34608835      1.11442548
H      -5.98390373      1.37251792     -0.30888674
H      -3.93263316      0.32574423     -1.28594770
H      -3.66626125      1.18448092      0.22779543
H      -3.96848315     -1.85409993     -0.03417163
H      -3.69557139     -0.99331115      1.47667718
H      -1.80626138     -1.03254495     -0.93358749
H      -1.65278166     -2.04719002      0.49795995
H      -1.40386298      1.00580514      0.41865490
H      -1.48630055      0.06873897      1.90779116
H       0.80423431      0.53754743      1.45008458
H       0.56413363     -1.19309430      1.23888380
H       0.44073448     -0.86832344     -1.24854282
H       0.68270530      0.86265240     -1.03959519
H       2.65517349     -1.33034395     -0.20369640
H       2.72679454     -0.42130981     -1.70874166
H       2.94009472      1.71563410     -0.39924967
H       3.00368253      0.79515684      1.09351819
H       4.97574553      0.34960430     -1.21336356
H       5.82520814      3.55507998     -0.27999459
H       6.63079504     -1.85895329      0.76491004
