42
CCCCCCCCN(CCO)CCO
C       5.71887028      0.01452428     -0.28581547
C       4.69442724     -0.80916625     -1.05066404
C       3.51710552     -1.27243467     -0.18999706
C       2.64658157     -0.11991486      0.31801462
C       1.42476586     -0.64532150      1.07606670
C       0.57319307      0.46371890      1.70165073
C      -0.02580730      1.47817636      0.71975396
C      -0.89474025      0.87641925     -0.39671540
N      -1.97680343     -0.00327672      0.08160496
C      -2.46280383     -0.88126862     -1.00444186
C      -3.07319660     -0.23099055     -2.26397657
O      -4.28692804      0.46837188     -2.02107275
C      -3.03658494      0.76485124      0.76924440
C      -4.17569287     -0.08080581      1.37099717
O      -5.13209477     -0.45606866      0.37728228
H       6.57952886      0.23187822     -0.92658667
H       6.08021494     -0.52625692      0.59452733
H       5.30115858      0.97091129      0.04185432
H       5.19515889     -1.69508630     -1.45919494
H       4.32664443     -0.23080477     -1.90617429
H       2.89881401     -1.94993538     -0.79201326
H       3.89088468     -1.85684434      0.65959234
H       3.23015718      0.52645676      0.98283759
H       2.32665271      0.48945422     -0.53432513
H       0.81048499     -1.26250765      0.41058979
H       1.76334351     -1.30751041      1.88301759
H       1.18483441      1.01089203      2.43013791
H      -0.23524866     -0.00283897      2.27766458
H       0.78373795      2.05349200      0.25419935
H      -0.60799819      2.21152004      1.29030465
H      -0.22629547      0.31057122     -1.05797538
H      -1.30133440      1.69449796     -1.00513883
H      -3.17326701     -1.60528463     -0.59120667
H      -1.61484233     -1.49766452     -1.33253137
H      -2.36954154      0.45947469     -2.73821813
H      -3.29418851     -1.01662675     -2.99439425
H      -4.71211568      0.05522219     -1.23774831
H      -3.45297484      1.53333599      0.10832590
H      -2.57998754      1.28524885      1.61833745
H      -3.78712026     -0.98375780      1.85375498
H      -4.70476438      0.51126877      2.12535108
H      -5.82222787     -0.96259439      0.84308072
