11
CN(C)N=O
C      -1.11029186     -0.40485412      0.11133453
N       0.07767636      0.44326219      0.27370082
C       1.28383070     -0.33977372     -0.00288695
N       0.04432958      1.55799665     -0.42365286
O      -0.84238313      2.31480608     -0.01304301
H      -1.04146020     -1.28873015      0.75651908
H      -1.23584136     -0.74607385     -0.92380529
H      -2.02533794      0.11969211      0.41259770
H       2.18874714      0.25171440      0.18544452
H       1.34106414     -1.20895704      0.66290914
H       1.31966656     -0.69908255     -1.03911766
