37
CCN(CC)C(=O)/C(Cl)=C(/C)OP(=O)(OC)OC
C      -1.08083938     -2.44922886      1.78512757
C      -1.97986301     -1.27596363      2.14633982
N      -1.88308099     -0.19720553      1.16405106
C      -2.81125767     -0.23858072      0.02965398
C      -4.16785337      0.35256072      0.38051150
C      -0.86628944      0.73899370      1.32987053
O      -0.06771833      0.71162259      2.26779785
C      -0.73241752      1.81142625      0.30393554
Cl     -1.62852739      3.24889093      0.60657099
C       0.12602466      1.63806510     -0.71681823
C       0.41707584      2.66008241     -1.77820428
O       0.79995909      0.42513145     -0.83375485
P       2.15162248      0.12230758     -1.66041684
O       2.10339546      0.45170521     -3.12099661
O       2.42896278     -1.43662425     -1.35100892
C       3.50795674     -2.03133193     -2.04340818
O       3.30988145      0.88565551     -0.83706086
C       3.39031471      0.68578595      0.56100460
H      -0.03217809     -2.14037551      1.72722350
H      -1.16422776     -3.23790960      2.53912978
H      -1.35687155     -2.87326358      0.81419730
H      -1.69322295     -0.89469078      3.13323304
H      -3.02192024     -1.60507444      2.21829004
H      -2.92498752     -1.28233874     -0.28391898
H      -2.39747035      0.30056350     -0.82648312
H      -4.07695206      1.39353603      0.70447529
H      -4.64782418     -0.20541831      1.19070054
H      -4.83052475      0.32106642     -0.48995285
H       0.16633235      2.25912262     -2.76533999
H       1.47753927      2.93188171     -1.76511393
H      -0.15144479      3.58574698     -1.65750881
H       3.62111422     -3.06169173     -1.69766962
H       3.30754975     -2.03940206     -3.11815272
H       4.43532110     -1.48694051     -1.84297911
H       4.32938992      1.11850323      0.91764190
H       3.38059427     -0.37959816      0.80619168
H       2.56243723      1.19299046      1.06219804
