27
CNC(C)C(O)c1ccccc1
C      -3.63146615     -0.64267794      0.27416408
N      -2.63180612      0.36004964     -0.07487165
C      -1.26210149     -0.03014502      0.35816466
C      -1.05956894      0.19790496      1.85845131
C      -0.24144158      0.79552435     -0.48950530
O      -0.62186289      0.70561131     -1.87139814
C       1.18936621      0.32456389     -0.34981032
C       2.11094231      1.07226493      0.39943264
C       3.42642822      0.63037513      0.55541335
C       3.83746635     -0.56229720     -0.03615243
C       2.93537379     -1.31274997     -0.78692413
C       1.62003911     -0.87235612     -0.94277888
H      -3.39861598     -1.61001496     -0.18225586
H      -4.60610715     -0.32712765     -0.11127299
H      -3.72927443     -0.76939523      1.35599294
H      -2.88381975      1.24847575      0.36207704
H      -1.11836677     -1.09399756      0.12812652
H      -1.17671830      1.25529521      2.12019914
H      -0.06015785     -0.11830690      2.17363253
H      -1.77545162     -0.37782645      2.45329739
H      -0.31259759      1.85808478     -0.22458962
H      -1.59903501      0.64257248     -1.83709072
H       1.81040902      2.00753654      0.86609619
H       4.13189967      1.21949715      1.13538704
H       4.86244028     -0.90339401      0.08145279
H       3.25587543     -2.23794173     -1.25826841
H       0.92815123     -1.45952539     -1.54365654
