13
CC(/C=N/O)=N\O
C      -0.73221054     -0.07563973      1.25617365
C      -0.48495773      0.05299188     -0.22208550
C       0.91746287     -0.18313001     -0.71066973
N       1.91189920     -0.18074697      0.11516385
O       3.09128837     -0.42156805     -0.60004941
N      -1.35882354      0.38399471     -1.12654456
O      -2.61727886      0.61916662     -0.56331121
H      -0.43384014      0.85314973      1.75009634
H      -1.78352258     -0.27486359      1.47537065
H      -0.14736906     -0.90445140      1.66525014
H       1.01928631     -0.34680308     -1.79686909
H       3.77370524     -0.38646607      0.09695545
H      -3.15563955      0.86436595     -1.33948056
