18
Cc1ccc([N+](=O)[O-])c(O)c1
C       2.81645017      0.31514303      0.43739860
C       1.35937175      0.08866419      0.15676492
C       0.92049201     -1.13016506     -0.37436050
C      -0.43930374     -1.35220826     -0.60649404
C      -1.37334343     -0.35169809     -0.29560809
N      -2.79259951     -0.60859557     -0.54795017
O      -3.11206363     -1.70368172     -1.03125915
O      -3.59750497      0.29279250     -0.26056021
C      -0.94426238      0.86491361      0.25000316
O      -1.75993705      1.90757742      0.59840045
C       0.41716025      1.07597652      0.47744542
H       3.05611985     -0.00980595      1.45447784
H       3.07386659      1.37443236      0.33330616
H       3.44138374     -0.24150085     -0.26885748
H       1.63696065     -1.91489284     -0.61183480
H      -0.75032816     -2.30738609     -1.02549210
H      -2.69375014      1.67860720      0.40628493
H       0.74128800      2.02182758      0.90833507
