27
COC(C)(C)CCOC(C)=O
C      -2.25661548      1.78091756      0.78781838
O      -1.91881044      0.44534399      1.13335307
C      -1.46298054     -0.40764228      0.07126143
C      -2.47469414     -0.46306451     -1.08533356
C      -1.37802345     -1.81217555      0.69167587
C      -0.08135725      0.03059269     -0.45951071
C       0.98103341      0.20921176      0.62513660
O       2.19805132      0.70894785      0.03929329
C       3.03354901     -0.23161018     -0.48032354
C       4.26293265      0.42538883     -1.02899442
O       2.82247505     -1.43549344     -0.51030063
H      -1.42719659      2.29391794      0.29565956
H      -2.48432953      2.31856921      1.71278016
H      -3.15059570      1.80806325      0.15947301
H      -3.48399285     -0.67084653     -0.71253197
H      -2.20648763     -1.23585030     -1.81397376
H      -2.52443130      0.49063280     -1.62192327
H      -0.76459224     -1.81552855      1.59890990
H      -2.37155423     -2.15683316      1.00284750
H      -0.96702545     -2.54304974     -0.01250959
H      -0.16780196      0.97981241     -1.00375282
H       0.27429785     -0.68974150     -1.20751266
H       0.66182220      0.95707246      1.35796299
H       1.17885341     -0.71658682      1.17579380
H       4.78138407      0.96589377     -0.23305910
H       3.98935373      1.10388592     -1.84083038
H       4.93673608     -0.33982788     -1.42496620
