36
CC(C)Cc1nnc(NS(=O)(=O)c2ccc(N)cc2)s1
C      -4.41475771      1.13420733      0.13183177
C      -4.86465353     -0.32609570      0.03375144
C      -6.26815249     -0.47358517      0.62638016
C      -3.89128669     -1.27997423      0.75043935
C      -2.56278108     -1.36379429      0.06759021
N      -2.36760322     -1.86703304     -1.13538003
N      -1.04070559     -1.80760845     -1.51434195
C      -0.30091682     -1.23421886     -0.59657256
N       1.13759254     -1.13254477     -0.78419482
S       1.57311621      0.43273966     -1.25516182
O       1.75109126      0.39593998     -2.69063396
O       0.73929176      1.42352108     -0.61140010
C       3.18315274      0.55016115     -0.51095595
C       4.33062478      0.43414894     -1.29660663
C       5.58689020      0.53384723     -0.69241935
C       5.70564751      0.79708018      0.67654629
N       6.96264620      0.77311125      1.28995755
C       4.54528322      0.86407854      1.45488079
C       3.28256352      0.76659736      0.86513854
S      -1.12426545     -0.81811990      0.83911279
H      -5.14324305      1.79679206     -0.34794319
H      -3.45411896      1.28968383     -0.36909531
H      -4.30976075      1.44833246      1.17588197
H      -4.91983205     -0.59454855     -1.02934158
H      -6.62702479     -1.50330745      0.52525118
H      -6.28018682     -0.21266993      1.69016988
H      -6.97977091      0.17876544      0.10918296
H      -3.77758135     -0.98039354      1.79988631
H      -4.31733219     -2.29168570      0.76388394
H       1.37040199     -1.74648774     -1.56750009
H       4.26377744      0.25713649     -2.36746998
H       6.47777742      0.40838691     -1.30313925
H       6.99910659      1.26634890      2.17679813
H       7.72743181      1.03434286      0.67510142
H       4.61691320      0.99796499      2.53145881
H       2.39066507      0.84888068      1.48189290
