33
CCC1(c2ccccc2)C(=O)NC(=O)N(CO)C1=O
C      -0.08604659     -2.84418038     -1.26700324
C      -0.91531001     -1.65039937     -0.79444151
C      -0.17979150     -0.67621114      0.16997368
C      -1.18835577      0.45985070      0.51221877
C      -1.31240662      1.59751444     -0.30962237
C      -2.22638566      2.61110971     -0.00898088
C      -3.04901578      2.50294554      1.10695385
C      -2.96909967      1.37418731      1.91524206
C      -2.05629423      0.35873439      1.61718547
C       0.24326379     -1.41041768      1.44235693
O      -0.30183653     -2.42334684      1.87688781
N       1.24733524     -0.81970677      2.15493916
C       2.20156987      0.01271347      1.65091376
O       3.12673054      0.36135317      2.38065156
N       2.07800550      0.36402377      0.32527649
C       3.15012187      1.11510433     -0.28181925
O       3.89465457      0.24629818     -1.12107365
C       1.06496997     -0.08447020     -0.50920889
O       1.15029851      0.04199873     -1.73593454
H       0.80352896     -2.53057707     -1.81991378
H       0.23454865     -3.47491976     -0.43355682
H      -0.68702381     -3.46717007     -1.93792791
H      -1.25904038     -1.10818344     -1.68583228
H      -1.82156149     -2.04102574     -0.31173104
H      -0.71487090      1.71393905     -1.21232126
H      -2.30286481      3.48172067     -0.65613172
H      -3.76309461      3.28933857      1.33712758
H      -3.62645587      1.27603047      2.77603279
H      -2.05457988     -0.51817982      2.26303498
H       1.47269689     -1.23463882      3.04882046
H       3.82781788      1.54816336      0.45873330
H       2.73728898      1.92628538     -0.89188052
H       3.28120289      0.00211588     -1.84117464
