51
C[C@]12CC[C@H]3[C@@H](CC[C@H]4C[C@@H](O)CC[C@@]43C)[C@@H]1CCC2=O
C      -3.10071823     -0.11019608     -1.91420735
C      -3.00212581      0.38402873     -0.45909349
C      -2.33311515      1.75262470     -0.38292269
C      -0.83396902      1.65417238     -0.72276101
C      -0.07601736      0.57784256      0.10183738
C      -0.82100497     -0.79919495      0.10393433
C      -0.12462061     -1.80801634      1.02703610
C       1.36228218     -1.95638756      0.71179583
C       2.06940372     -0.59671977      0.73727179
C       3.58577972     -0.75099560      0.56624475
C       4.29411686      0.59518273      0.70405637
O       5.67688518      0.41150838      0.41981945
C       3.71338946      1.65135065     -0.23175045
C       2.19348314      1.77367550     -0.10248818
C       1.44472994      0.42087986     -0.27161339
C       1.60533061     -0.04555402     -1.74139655
C      -2.27286774     -0.55396352      0.52476280
C      -3.22612572     -1.73195662      0.69380344
C      -4.58918237     -1.04341673      0.85893135
C      -4.39712216      0.27588076      0.12978036
O      -5.27029979      1.12553465      0.01420191
H      -3.66291964      0.61014029     -2.52095892
H      -2.12348369     -0.23962892     -2.38659166
H      -3.63368842     -1.06350953     -1.99674347
H      -2.44896630      2.17614009      0.62334670
H      -2.81973841      2.46102989     -1.06441113
H      -0.38837776      2.63963008     -0.54721602
H      -0.72913406      1.45461700     -1.79368865
H      -0.10163483      0.94331587      1.14113686
H      -0.81388111     -1.22514022     -0.90460361
H      -0.23880955     -1.49396149      2.07258107
H      -0.60316894     -2.79044142      0.93979373
H       1.49246449     -2.44539646     -0.26029563
H       1.81326370     -2.62386817      1.45636958
H       1.91838241     -0.18852101      1.74912456
H       3.98274113     -1.43705399      1.32601557
H       3.83489136     -1.21796822     -0.39418882
H       4.21237241      0.93990696      1.74202704
H       6.11462956      1.27390453      0.52187728
H       4.17769103      2.62202140     -0.01657531
H       3.99417865      1.42754292     -1.26811550
H       1.84609027      2.50264185     -0.84395616
H       1.96228605      2.19768219      0.88362307
H       1.04883544     -0.96061636     -1.95770963
H       2.64768942     -0.24803180     -2.00278546
H       1.25606246      0.72082846     -2.44115570
H      -2.23514907     -0.06395371      1.51344519
H      -3.21926887     -2.38738837     -0.18377036
H      -2.98783496     -2.34452745      1.56888597
H      -5.39288363     -1.62844107      0.40688722
H      -4.80087105     -0.83723305      1.91203282
