33
C=CCOc1nc(OCC=C)nc(OCC=C)n1
C      -4.01127486     -4.69871167      1.52294499
C      -3.37000019     -4.16996836      0.47219822
C      -2.18030394     -3.25905093      0.56490962
O      -2.50969822     -2.06106977     -0.13084461
C      -1.48889964     -1.13541679     -0.13198090
N      -1.77410253     -0.00765794     -0.76608821
C      -0.79195144      0.88036127     -0.76911656
O      -1.08932227      2.05380736     -1.42738407
C      -0.02160723      2.99468364     -1.41523228
C      -0.49375779      4.21766917     -2.14541157
C       0.12150998      4.76109966     -3.20417102
N       0.40125112      0.72329233     -0.20484319
C       0.56210168     -0.44916216      0.39812448
O       1.75605737     -0.74326371      1.01967966
C       2.70369523      0.31694426      0.95078937
C       3.94518144     -0.14692864      1.65453923
C       4.52122499      0.48635493      2.68505153
N      -0.33915161     -1.41829546      0.46793482
H      -4.86938345     -5.34825945      1.37865815
H      -3.70383337     -4.49368267      2.54375640
H      -3.71894625     -4.40181240     -0.53158264
H      -1.32826216     -3.75859320      0.08720737
H      -1.94466367     -3.04318782      1.61474916
H       0.22361105      3.28342966     -0.38552402
H       0.86682700      2.57576817     -1.90465072
H      -1.40571587      4.67766381     -1.77097840
H      -0.28326248      5.64665288     -3.68521649
H       1.03025226      4.33697212     -3.61981523
H       2.30658631      1.22072088      1.43022463
H       2.96181377      0.53365854     -0.09332367
H       4.39176823     -1.06705774      1.28404604
H       5.41950469      0.08810988      3.14764583
H       4.11275186      1.40493012      3.09492084
