34
CC(C)(CO)COC(=O)C(C)(C)CO
C       2.12339083      1.42192154      1.41181096
C       2.36772682      0.07752833      0.70261810
C       3.53225805     -0.65117547      1.39693266
C       2.72247671      0.35902054     -0.77144322
O       2.98076520     -0.85248851     -1.47074197
C       1.10635663     -0.80924402      0.79935228
O      -0.00814094     -0.14409717      0.18329308
C      -1.18510693     -0.82973021      0.23687427
O      -1.32805118     -1.91610364      0.78364205
C      -2.29895967     -0.05917148     -0.46768674
C      -1.91176714      0.17437496     -1.93630638
C      -2.51069886      1.28897208      0.23800197
C      -3.58364369     -0.90490906     -0.38918875
O      -4.67433010     -0.24634122     -1.02885891
H       1.83978990      1.26953780      2.45923155
H       1.32304129      1.99346677      0.92906022
H       3.02584596      2.04364792      1.39910791
H       3.72123219     -1.63124221      0.94539536
H       4.45794920     -0.06856693      1.33040896
H       3.31790351     -0.81365567      2.45938458
H       1.90795508      0.88260775     -1.28402917
H       3.61998912      0.98432033     -0.83981151
H       3.18588154     -0.61219206     -2.39094370
H       0.86610256     -1.00040138      1.85318311
H       1.27006162     -1.77186138      0.29936789
H      -1.71950370     -0.77629598     -2.44687482
H      -2.70205018      0.69931663     -2.48367988
H      -1.00021439      0.77687886     -2.02214979
H      -3.32186324      1.86290402     -0.22279353
H      -1.60823461      1.90977492      0.19943200
H      -2.75695254      1.14325237      1.29609047
H      -3.86847334     -1.09075959      0.65312182
H      -3.44419914     -1.87652740     -0.87767884
H      -5.44653655     -0.83276143     -0.94412203
