11
CC(Cl)C(Cl)Cl
C      -1.27870900      0.07310766     -0.31388699
C      -0.06594068     -0.31682208      0.52805085
Cl     -0.24369756      0.40808766      2.16630738
C       1.29975882      0.04799828     -0.07863161
Cl      1.47197618      1.78642554     -0.45544723
Cl      1.61268006     -0.89287221     -1.57000559
H      -1.23564550     -0.37865421     -1.30959611
H      -1.36453226      1.15752184     -0.43742290
H      -2.20338900     -0.27740454      0.15875708
H      -0.09737830     -1.39971127      0.69477795
H       2.10487725     -0.20767666      0.61709717
