18
Oc1ccc(Cl)c2cccnc12
O      -1.72347439     -2.35251474      0.03008581
C      -1.37713467     -1.02671807      0.14230996
C      -2.37727243     -0.12139634      0.47456303
C      -2.05202340      1.22332954      0.59376651
C      -0.73418123      1.63999075      0.37913273
Cl     -0.40646627      3.33302879      0.54614358
C       0.28581005      0.71241955      0.03969384
C       1.63903932      1.04366277     -0.19409663
C       2.56350160      0.05741997     -0.52192146
C       2.11713619     -1.24519038     -0.61026217
N       0.83616649     -1.61484139     -0.39673431
C      -0.05463230     -0.65031520     -0.07887367
H      -0.88081127     -2.79757083     -0.20581087
H      -3.39427553     -0.46585433      0.63702901
H      -2.82543259      1.94195529      0.85326395
H       1.98208539      2.07318437     -0.12227072
H       3.60404200      0.30295555     -0.70295875
H       2.79792305     -2.05354530     -0.86305982
