22
O=[N+]([O-])O[C@@H]1CO[C@@H]2[C@@H](O)CO[C@H]12
O       2.91982245     -0.81004912      1.42535908
N       3.10688894      0.31006229      0.94729962
O       3.92274455      1.17439192      1.25957592
O       2.30450646      0.68540741     -0.15345010
C       1.33359813     -0.29017920     -0.49721556
C       0.63972960      0.10582269     -1.79015790
O      -0.64428539     -0.53722391     -1.78864811
C      -0.95928296     -0.91631071     -0.43241830
C      -2.18010316     -0.17806947      0.07701545
O      -2.69747457     -0.83074301      1.24100025
C      -1.59760550      1.17972462      0.44062611
O      -0.26142447      0.92467613      0.92349124
C       0.15262014     -0.37804039      0.45352413
H       1.78568637     -1.27956048     -0.65449651
H       0.49156638      1.18904344     -1.86744277
H       1.20402943     -0.21116059     -2.67273585
H      -1.04338066     -2.00647915     -0.38730711
H      -2.98411168     -0.09264168     -0.65894119
H      -2.15368200     -0.56812544      2.00671149
H      -2.15901007      1.69364688      1.22588108
H      -1.51587574      1.83352919     -0.43361673
H       0.33504376     -0.99772144      1.33594578
