23
Cc1cnc2c(C(=O)O)c(Cl)ccc2c1
C       3.48044266      0.18893697      1.59361521
C       2.09668430      0.03290244      1.05032759
C       1.37400718     -1.13065726      1.24555057
N       0.13265618     -1.34272556      0.75404736
C      -0.45566327     -0.37614146      0.01161517
C      -1.73656786     -0.52805679     -0.52772944
C      -2.44147305     -1.78396418     -0.28106639
O      -2.44491738     -2.76457504     -0.99901228
O      -3.16044706     -1.70325632      0.85313228
C      -2.34392869      0.46346415     -1.30582354
Cl     -3.92417280      0.28027295     -1.97952863
C      -1.66656744      1.65326069     -1.55514224
C      -0.39086349      1.84107541     -1.02987705
C       0.21491024      0.83933762     -0.25261591
C       1.50112485      1.02523584      0.27475542
H       3.60098396     -0.37360610      2.52544925
H       4.21284393     -0.17317858      0.86558583
H       3.69527096      1.23891851      1.81858478
H       1.77913274     -1.95942989      1.82109495
H      -3.57338871     -2.58797772      0.93337817
H      -2.12339702      2.43606535     -2.15619322
H       0.12991410      2.77551610     -1.23173471
H       2.04341566      1.94858287      0.08020323
