49
CC(C)(C)NCC(O)COc1cccc2c1CC(O)C(O)C2
C      -5.37333673      1.63064097     -1.25630494
C      -4.96504964      0.83650160     -0.00085469
C      -5.93473311     -0.34509915      0.16197258
C      -5.06375871      1.76856368      1.21655950
N      -3.58462947      0.38129516     -0.23925817
C      -2.91732656     -0.28589541      0.88534129
C      -1.55271968     -0.86157125      0.45915370
O      -1.75836040     -1.84637251     -0.57011861
C      -0.58673097      0.21924336     -0.04547157
O       0.69282131     -0.37759508     -0.31211305
C       1.68677435     -0.22762347      0.61981719
C       1.46435715      0.04043083      1.97213406
C       2.53848582      0.14928361      2.85431286
C       3.84030219     -0.02602244      2.39509621
C       4.08642955     -0.32317514      1.04806773
C       3.00433592     -0.40865027      0.14672417
C       3.23118503     -0.73872112     -1.31744056
C       4.68165957     -0.58094902     -1.77672197
O       5.01526885      0.80013377     -2.00516167
C       5.65839849     -1.17450171     -0.75738262
O       6.99881685     -0.99772897     -1.22953201
C       5.51809693     -0.49035065      0.60150023
H      -6.39707105      2.01220646     -1.16752378
H      -4.71551240      2.49254957     -1.41565628
H      -5.33350201      1.00831239     -2.15782734
H      -5.87383151     -1.03109710     -0.69068805
H      -6.97122999      0.00444464      0.22675785
H      -5.73096616     -0.91973968      1.07053552
H      -4.34748308      2.59455799      1.14415637
H      -4.87416795      1.23791806      2.15565337
H      -6.06449544      2.20838545      1.29216547
H      -3.57378353     -0.27479096     -1.02717557
H      -3.53131492     -1.11779771      1.24621215
H      -2.75960563      0.41591296      1.71093288
H      -1.11296968     -1.39657920      1.30795306
H      -0.86789450     -2.07251010     -0.90009043
H      -0.93232466      0.60210549     -1.01266913
H      -0.51726650      1.08050489      0.62843351
H       0.46559044      0.15623091      2.37813904
H       2.35983186      0.36337316      3.90482195
H       4.66751936      0.06153521      3.09796171
H       2.59972761     -0.08908974     -1.93728871
H       2.91883499     -1.77940153     -1.47169655
H       4.81672482     -1.07347730     -2.74608890
H       4.53956474      1.33548528     -1.34412312
H       5.47884671     -2.25120163     -0.65375472
H       7.00515568     -0.13132865     -1.68567197
H       6.07697060     -1.07736465      1.34326735
H       5.99436548      0.49901897      0.57659006
