42
OC[C@H]1OC2(COC3(CO2)O[C@H](CO)[C@@H](O)[C@@H]3O)[C@@H](O)[C@@H]1O
O       4.86508310      2.19202597      0.01856123
C       4.57453698      0.97405464     -0.66771628
C       3.78867363      0.04100486      0.24961790
O       2.55133347      0.69075783      0.63124510
C       1.44951762     -0.18851023      0.29611907
C       0.38689386     -0.03964989      1.40033219
O      -0.86819803     -0.63842835      1.06303535
C      -1.38030092     -0.04383216     -0.14404256
C      -0.37291161     -0.22358350     -1.29123887
O       0.95874653      0.22784842     -0.98850091
O      -1.68655127      1.34536781      0.08385549
C      -3.10958169      1.46136031      0.28147261
C      -3.44353911      2.37337947      1.45932656
O      -4.84329397      2.61104825      1.56977549
C      -3.63960881      0.04473561      0.47770339
O      -5.01390793     -0.07577161      0.13796349
C      -2.72519551     -0.71966418     -0.45908308
O      -2.75809940     -2.11951552     -0.19484128
C       2.09092109     -1.58980284      0.24236286
O       1.38580919     -2.60666182     -0.46128846
C       3.42045864     -1.27309374     -0.42400977
O       4.38251802     -2.29439000     -0.19777798
H       4.01755492      2.48508459      0.40590602
H       5.51995958      0.52131472     -0.98026443
H       3.99410429      1.23558849     -1.55856148
H       4.35576573     -0.12270425      1.17394494
H       0.73860959     -0.49383430      2.33360985
H       0.22497019      1.02035838      1.63421642
H      -0.69834730      0.34998146     -2.16600990
H      -0.32297919     -1.27191476     -1.59468723
H      -3.54048985      1.89586046     -0.63013441
H      -3.08448922      1.94412736      2.40111016
H      -2.94103740      3.33951078      1.34443807
H      -5.31641081      1.79711335      1.30570135
H      -3.52008705     -0.30398756      1.51080630
H      -5.18527829     -1.03267247      0.03099365
H      -3.03629118     -0.56157055     -1.49883534
H      -2.17340309     -2.26690896      0.57785033
H       2.27701891     -1.97179848      1.25406129
H       1.43105290     -2.39950212     -1.41231612
H       3.30135758     -1.16376697     -1.50853045
H       3.94511585     -3.14895853     -0.37370453
