67
CCCCCCCC/C=C\CCCCCCCC1=NCCN1CCO
C       9.34722674     -1.99300314     -1.59668176
C       8.94572930     -1.27375449     -0.31773418
C       8.12624892     -0.00519042     -0.56274093
C       6.79446665     -0.20926829     -1.29067659
C       5.81090574     -1.16863273     -0.61379396
C       5.41169149     -0.80520874      0.82012197
C       4.80951743      0.59107542      1.00899625
C       3.51490438      0.80658468      0.22231900
C       2.95518227      2.17893008      0.47168293
C       1.84190224      2.49665701      1.15180503
C       0.91275531      1.56218088      1.87369952
C      -0.41322409      1.41329290      1.12547753
C      -1.39570382      0.53594550      1.90447079
C      -2.71188638      0.36305082      1.14285708
C      -3.71906210     -0.45415829      1.95523881
C      -4.99663036     -0.79077688      1.18229746
C      -5.80966665      0.43837936      0.77769023
C      -7.09693036      0.00821851      0.11739954
N      -8.12976844     -0.29828023      0.86111915
C      -9.18559853     -0.70506964     -0.10399452
C      -8.68575997     -0.30338518     -1.49289263
N      -7.26694659     -0.11072740     -1.24580597
C      -6.48025721      0.57107160     -2.27041761
C      -5.21837352     -0.22801289     -2.60546008
O      -5.55953152     -1.57671736     -2.91898203
H       8.47609240     -2.39979419     -2.11887586
H       9.87552591     -1.31871661     -2.27826789
H      10.01386960     -2.82993166     -1.36437720
H       9.85657319     -0.99200135      0.22509736
H       8.39892200     -1.96344935      0.33421044
H       8.73201687      0.69828268     -1.14793499
H       7.94443446      0.48542743      0.40068728
H       6.31892387      0.77028754     -1.41668559
H       6.98800181     -0.57352370     -2.30659847
H       4.90920310     -1.23460769     -1.23461068
H       6.23496265     -2.18016092     -0.60877437
H       4.69112898     -1.55354979      1.17398907
H       6.28669939     -0.89708786      1.47452159
H       5.54768993      1.35587374      0.73982550
H       4.60611003      0.72988155      2.07901485
H       3.70356982      0.71908470     -0.85376235
H       2.79188881      0.02346755      0.47098080
H       3.52291570      2.99433168      0.02319191
H       1.57464096      3.55147680      1.21519666
H       0.72971294      1.97092677      2.87518964
H       1.36814181      0.57842701      2.02733497
H      -0.23102757      0.97397622      0.13626364
H      -0.86209301      2.40127551      0.95993565
H      -0.94683567     -0.44787909      2.08805065
H      -1.59424516      0.98988748      2.88331493
H      -3.12877961      1.35117227      0.91799300
H      -2.51627907     -0.13469886      0.18553071
H      -3.25056937     -1.39626199      2.26780014
H      -3.97854442      0.08761366      2.87343982
H      -4.74421775     -1.38352016      0.29538792
H      -5.61617714     -1.44293729      1.81105024
H      -6.06042370      1.03161356      1.66518367
H      -5.24591713      1.08526641      0.10210091
H      -9.33216800     -1.78893652     -0.03477131
H     -10.13329195     -0.21132973      0.13338625
H      -9.15668883      0.63325850     -1.81385524
H      -8.87644847     -1.08059631     -2.23915806
H      -7.07905662      0.65003026     -3.18648647
H      -6.22965234      1.59162438     -1.96285002
H      -4.70906757      0.20898309     -3.47021226
H      -4.51287351     -0.24170422     -1.77190789
H      -6.16785826     -1.85468257     -2.20575023
