53
CC(C)(c1ccc(O)cc1)c1ccc(O)cc1.CC1CO1.ClCC1CO1
C       0.13124496     -2.31782239     -0.82843892
C       0.10229054     -1.17262222      0.21774672
C       0.23296516     -1.85731004      1.60373163
C      -1.23253026     -0.38800875      0.24433203
C      -2.36171302     -0.77781449     -0.49654117
C      -3.54989685     -0.04250173     -0.43865621
C      -3.62692167      1.08883232      0.36067705
O      -4.80507316      1.77389636      0.38403000
C      -2.53329236      1.50100877      1.10896601
C      -1.34654784      0.76506942      1.05105149
C       1.28708369     -0.23739072     -0.12820238
C       2.44200467     -0.14262836      0.66745657
C       3.49153071      0.71158096      0.31441217
C       3.40287478      1.47955160     -0.83760683
O       4.44984904      2.29820244     -1.14018494
C       2.27947318      1.40866124     -1.64926755
C       1.23146981      0.55412819     -1.29601532
C       1.21987047      0.01943738      0.21977301
C      -0.08552818      0.36488855     -0.40196770
C      -1.35321169     -0.33982155     -0.00166979
O      -1.02695730      0.96930515      0.49104284
Cl      2.05723058      1.16395635      0.40274546
C       1.17675643     -0.33620295      0.04019065
C      -0.14589142      0.01387885     -0.54469459
C      -1.35065775      0.26625783      0.32362237
O      -1.16047171     -0.98238398     -0.35887620
H      -0.62218178     -3.08425807     -0.61065345
H      -0.05174963     -1.95523257     -1.84691863
H       1.10667784     -2.82057030     -0.83640049
H       0.32092461     -1.13040241      2.41989641
H       1.11047361     -2.51331264      1.65008434
H      -0.64430224     -2.47990724      1.82066471
H      -2.34842037     -1.65796930     -1.13281514
H      -4.41389992     -0.35607898     -1.01789727
H      -4.70738226      2.53227655      0.98266146
H      -2.57849460      2.38420461      1.73769410
H      -0.49628654      1.10518406      1.64049809
H       2.55648092     -0.72715392      1.57570769
H       4.37740626      0.77441189      0.94021184
H       4.24523877      2.76560323     -1.96644862
H       2.19569475      2.00401821     -2.55254454
H       0.35500920      0.51435428     -1.94123087
H       1.10317927     -0.34917487      1.24421356
H       1.72123548     -0.75672955     -0.36636363
H       1.86940502      0.89974751      0.24663662
H       0.00313801      0.76967943     -1.40067625
H      -2.15248165     -0.41265292     -0.72832260
H      -1.29864942     -1.16467912      0.69733394
H       1.08465498     -0.90594867      0.96990834
H       1.77201663     -0.91669902     -0.67024571
H      -0.08152232      0.49378887     -1.51208085
H      -1.23020963      0.27522949      1.39979110
H      -2.12190580      0.92812324     -0.05036057
