41
CCCN1CC(C)n2c(nc3ccccc3c2=O)C1C
C       5.30231316      0.85464668      0.19734822
C       3.80629898      0.77246470      0.46534801
C       3.14091948     -0.29059209     -0.41761086
N       1.71954273     -0.49879896     -0.10947369
C       1.17818750     -1.63618316     -0.86317135
C      -0.18619352     -2.03845888     -0.28510693
C      -0.01590121     -2.68329510      1.10109751
N      -1.11266730     -0.90328441     -0.20498958
C      -0.64009715      0.38268777     -0.01291071
N      -1.40994044      1.38495046      0.28651857
C      -2.78338905      1.16635081      0.42509561
C      -3.60812678      2.24429297      0.75593003
C      -4.98922131      2.07171436      0.88625680
C      -5.55820586      0.81461189      0.68472971
C      -4.74514183     -0.26864739      0.35421698
C      -3.36332005     -0.08206436      0.22567245
C      -2.46877973     -1.20319658     -0.10061349
O      -2.93886961     -2.32956316     -0.24637696
C       0.85610778      0.69504737     -0.26983064
C       0.95591846      1.39423006     -1.63570846
H       5.79276551     -0.10071304      0.40955407
H       5.49921739      1.11857480     -0.84664097
H       5.75950476      1.61908221      0.83341660
H       3.37026376      1.76030167      0.28238125
H       3.64541916      0.53372694      1.52342974
H       3.67268814     -1.23522211     -0.24162196
H       3.28901679     -0.04983444     -1.47740301
H       1.85186038     -2.50003520     -0.79554099
H       1.08350640     -1.39872877     -1.92955321
H      -0.62411735     -2.79236717     -0.95180482
H      -0.97088759     -3.06216427      1.48012598
H       0.67945004     -3.52797442      1.05516138
H       0.36229477     -1.96667779      1.83827951
H      -3.16762735      3.22596762      0.91122379
H      -5.61850349      2.91986211      1.14477963
H      -6.63205573      0.67847691      0.78706323
H      -5.18331299     -1.25212529      0.20102993
H       1.13543968      1.42070102      0.50482560
H       0.65404724      0.73696618     -2.45736632
H       0.29381129      2.26718861     -1.67152995
H       1.96778497      1.75808141     -1.83623067
