40
CCCCCCCCNC(=O)n1cc(F)c(=O)[nH]c1=O
C      -3.68289309      2.89944430     -1.00621209
C      -4.03669224      1.42440795     -0.90216095
C      -2.82018696      0.58259446     -0.51478674
C      -3.18376473     -0.90022276     -0.40840910
C      -1.97624007     -1.80272154     -0.13512103
C      -1.33803362     -1.55988727      1.23485640
C      -0.26255333     -2.59251865      1.59517847
C       0.93079357     -2.62856924      0.64336442
N       1.62683928     -1.36021690      0.59354197
C       2.50622089     -1.05990985     -0.41952510
O       2.64458473     -1.81008326     -1.38750007
N       3.20433500      0.15903250     -0.28876280
C       3.98767528      0.56237997     -1.36953788
C       4.69879814      1.68807516     -1.36865442
F       5.45267422      2.06575175     -2.41668481
C       4.67832579      2.56797455     -0.19075143
O       5.32754979      3.60295737     -0.11658203
N       3.87524910      2.12957057      0.82774330
C       3.16684844      0.94954850      0.86928401
O       2.57431221      0.65470812      1.90875345
H      -2.91282917      3.06544354     -1.76633364
H      -3.31079474      3.28206873     -0.05044987
H      -4.56637478      3.48239706     -1.28464777
H      -4.83044862      1.29640652     -0.15698632
H      -4.43593576      1.08230520     -1.86406231
H      -2.42619269      0.94263540      0.44217672
H      -2.02915705      0.71488223     -1.26282379
H      -3.64572226     -1.22417811     -1.34935981
H      -3.93560583     -1.04255706      0.37734881
H      -1.23532866     -1.65687724     -0.92936464
H      -2.30779760     -2.84654828     -0.19611654
H      -2.11715715     -1.59690415      2.00629368
H      -0.90404399     -0.55478799      1.27664678
H       0.09476544     -2.37385461      2.60944929
H      -0.71698787     -3.58998329      1.63091449
H       0.62447212     -2.91971163     -0.36668696
H       1.65364511     -3.37693132      0.98779737
H       1.76470515     -0.86662305      1.47399976
H       4.00333012     -0.08396222     -2.24325302
H       3.85961585      2.69446455      1.66423889
