26
CCCCC(CC)C(=O)O
C       3.94256421      0.11153747     -0.28198100
C       2.75674067      0.05217626      0.66769327
C       1.43272766     -0.02321602     -0.09346292
C       0.24132323     -0.08292094      0.86960817
C      -1.10483018     -0.21383734      0.13631321
C      -2.24334754     -0.47470709      1.13572204
C      -3.56323545     -0.80638766      0.45081620
C      -1.38914640      1.05399910     -0.63971897
O      -1.50651562      2.17924725     -0.18438167
O      -1.51247254      0.83440071     -1.96276246
H       4.87839746      0.16462790      0.28308586
H       3.98011462     -0.77811412     -0.91872173
H       3.88474936      0.99401625     -0.92713771
H       2.86223163     -0.82261326      1.31982839
H       2.76629997      0.93981520      1.31088637
H       1.42958744     -0.91204997     -0.73602599
H       1.34285354      0.85064729     -0.74922658
H       0.37297288     -0.94385540      1.53721547
H       0.24094495      0.81353965      1.50287938
H      -1.04621033     -1.05857427     -0.56198752
H      -2.38908991      0.39618094      1.78662167
H      -1.97414984     -1.31691125      1.78473135
H      -3.45775207     -1.67901054     -0.20158391
H      -4.32822331     -1.03452231      1.19990232
H      -3.92488884      0.03291246     -0.15096937
H      -1.69164557      1.72361968     -2.33415739
