51
C[C@]12CC[C@H]3[C@@H](CC[C@H]4C[C@@H]5S[C@@H]5C[C@@]43C)[C@@H]1CC[C@@H]2O
C      -2.77094304      1.55465166      0.59152610
C      -2.52217624      0.04609852      0.84593344
C      -1.62085975     -0.12546913      2.07489502
C      -0.19197401      0.37705474      1.80054594
C       0.44654370     -0.23309109      0.52244486
C      -0.50131905     -0.13467490     -0.71407325
C       0.09277919     -0.87933693     -1.91556094
C       1.49599474     -0.39056580     -2.25246733
C       2.43691736     -0.47952098     -1.04219864
C       3.85673494     -0.04830879     -1.45516941
C       4.80879013      0.09785381     -0.31123256
S       5.19078200     -1.26543227      0.66335462
C       4.29858394      0.16194697      1.09942174
C       2.83702618     -0.00752444      1.40985446
C       1.89728001      0.29733496      0.20522091
C       1.89150896      1.82811015     -0.03502753
C      -1.87124088     -0.70516283     -0.33100211
C      -2.97837939     -0.74918299     -1.38133513
C      -4.27027832     -0.89118850     -0.55624123
C      -3.86101902     -0.71303462      0.91875153
O      -4.84878633     -0.02042685      1.65734512
H      -1.85206965      2.10418592      0.37099849
H      -3.45348689      1.73026980     -0.24599006
H      -3.21838875      2.02557921      1.47460607
H      -2.03896355      0.40498237      2.93882840
H      -1.56866859     -1.18456262      2.35906936
H       0.41923490      0.13037723      2.67589768
H      -0.20872769      1.46890065      1.73660536
H       0.55370918     -1.30825823      0.73934381
H      -0.62053732      0.91457739     -1.00446892
H       0.12655654     -1.95670026     -1.70875000
H      -0.54701523     -0.74741131     -2.79587661
H       1.89324547     -0.99978721     -3.07383867
H       1.44599491      0.63837627     -2.62784539
H       2.48979661     -1.54316467     -0.76413971
H       4.26342200     -0.76097027     -2.18435111
H       3.80781079      0.91488834     -1.97906881
H       5.65867613      0.71508757     -0.57797349
H       4.80079684      0.81580006      1.80156515
H       2.59468676      0.66135742      2.24549013
H       2.64948547     -1.02347315      1.78295557
H       1.56076798      2.37295038      0.85478869
H       2.88889122      2.21259737     -0.27000090
H       1.23516700      2.11830419     -0.85949454
H      -1.70334427     -1.75153571     -0.02438970
H      -2.85455319     -1.58837797     -2.07334959
H      -3.00441822      0.17056534     -1.97622630
H      -5.01592905     -0.15205456     -0.87003490
H      -4.72019397     -1.87938665     -0.70378359
H      -3.72137092     -1.69802797      1.38196459
H      -5.67653961     -0.52521961      1.58248338
