24
Cc1ccc(N(C)C(N)=O)cc1
C       3.73309052      0.11748781      0.71564202
C       2.29221000      0.05459192      0.30534921
C       1.93803483      0.01780452     -1.04482695
C       0.59386864     -0.07650958     -1.42625859
C      -0.43189551     -0.13039068     -0.47045399
N      -1.80487221     -0.23962345     -0.87468609
C      -2.08293710     -0.90873753     -2.14168940
C      -2.90637666      0.20175696     -0.15379472
N      -2.67224083      1.10446136      0.83417718
O      -4.07215367     -0.10473518     -0.39209269
C      -0.06001042     -0.12898104      0.88087523
C       1.28311876     -0.03761988      1.26584342
H       4.14114515     -0.89385439      0.80626002
H       4.32442322      0.67356638     -0.01943013
H       3.84338231      0.63138764      1.67636323
H       2.70532501      0.06363460     -1.81479594
H       0.37258270     -0.07972978     -2.48966358
H      -1.90476697     -0.20530518     -2.96119666
H      -3.12266270     -1.24285561     -2.20664998
H      -1.44476378     -1.79166206     -2.25206495
H      -3.52325528      1.51267520      1.19819131
H      -1.93022167      1.76621498      0.65301530
H      -0.80263516     -0.25011229      1.66572758
H       1.53161080     -0.05346473      2.32495571
