23
Clc1ccc(Oc2ccc(Cl)c(Cl)c2)cc1
Cl     -5.15444373      0.97333994      0.78657677
C      -3.63489571      0.43488185      0.18587992
C      -2.69761321     -0.10993225      1.06375577
C      -1.46404953     -0.54855153      0.57740079
C      -1.17167816     -0.42288658     -0.78388892
O       0.01069304     -0.86705183     -1.32991587
C       1.17712094     -0.46878487     -0.71734581
C       2.15926352     -1.44301457     -0.53992857
C       3.38049411     -1.10187992      0.04396659
C       3.62596172      0.21778247      0.43677691
Cl      5.15719691      0.56979703      1.15500387
C       2.64652324      1.19872358      0.23606732
Cl      2.88688459      2.85063327      0.68352985
C       1.42370786      0.85633120     -0.34908978
C      -2.12016494      0.10127492     -1.66356919
C      -3.35303116      0.53919214     -1.17612683
H      -2.92359747     -0.20159890      2.12286552
H      -0.74560034     -0.99130749      1.26168266
H       1.97272012     -2.46787706     -0.85216563
H       4.13836264     -1.86873881      0.18665443
H       0.67234076      1.62221249     -0.52233217
H      -1.89865247      0.17267284     -2.72520830
H      -4.08754272      0.95478210     -1.86078766
