56
O=P(O)(O)CN(CCCCCCN(CP(=O)(O)O)CP(=O)(O)O)CP(=O)(O)O
O       7.06172221      2.20912965      2.36901316
P       6.50262159      0.97443435      1.73903186
O       6.83379571     -0.32231697      2.62495145
O       7.29646977      0.62750422      0.38807402
C       4.74166812      0.96755087      1.36581849
N       4.20865199     -0.38895739      1.16496748
C       2.75286242     -0.50388287      1.31426591
C       1.90336613      0.68280985      0.82930276
C       0.41246128      0.33123366      0.83469731
C      -0.43602215      1.51265961      0.35937623
C      -1.94296195      1.23408834      0.40350813
C      -2.38544323      0.15646282     -0.59395279
N      -3.85215995      0.02588387     -0.72037101
C      -4.47914981     -0.44185712      0.53982073
P      -5.33146155      0.97465114      1.26291872
O      -4.56269474      1.99360556      2.03555671
O      -6.17274720      1.66533651      0.06873463
O      -6.52306521      0.36454113      2.14374373
C      -4.15513763     -0.88636855     -1.85491384
P      -5.89401699     -0.72783758     -2.30776535
O      -6.89974358     -1.45210334     -1.47438288
O      -6.18716808      0.84622975     -2.41575492
O      -5.97911643     -1.14682648     -3.85469955
C       4.75681840     -1.16236505      0.03661928
P       4.16914923     -0.62203156     -1.56415351
O       2.72761749     -0.81033016     -1.91186002
O       5.09962792     -1.37127677     -2.63770281
O       4.63936594      0.89445894     -1.79185355
H       7.70646071     -0.27576863      3.05280332
H       8.24685365      0.83076383      0.45059691
H       4.52719595      1.64318344      0.53486717
H       4.27448414      1.39347006      2.26167984
H       2.55287880     -0.63256780      2.38626794
H       2.39703020     -1.43335839      0.85193234
H       2.19615526      0.98804562     -0.17947814
H       2.06564617      1.54864227      1.48227865
H       0.10619365      0.04039155      1.84663998
H       0.24887348     -0.53388994      0.18274952
H      -0.14358538      1.79491202     -0.65938162
H      -0.22958419      2.38030743      0.99836746
H      -2.46583762      2.17096803      0.17463409
H      -2.21603030      0.94664200      1.42449901
H      -1.97217480      0.43366959     -1.57254938
H      -1.94792861     -0.81319342     -0.32626909
H      -5.22752953     -1.21750247      0.35861227
H      -3.76294072     -0.87082663      1.24908234
H      -6.53671977      2.52547832      0.36169458
H      -6.94944274      1.01915594      2.72627317
H      -3.58412154     -0.57496262     -2.73696571
H      -3.89704957     -1.92751516     -1.63279350
H      -6.07669722      1.26794315     -1.52748885
H      -6.90450868     -1.12237076     -4.16241535
H       4.47229277     -2.21452253      0.16043911
H       5.84683935     -1.17312240      0.05452703
H       4.74591295     -1.31706827     -3.54404421
H       4.22202389      1.30628873     -2.56954926
