19
Cc1ccc(O)c(C)c1
C       2.70402959     -0.84150648     -0.32724367
C       1.36277749     -0.18965866     -0.16340238
C       1.26785385      1.14084489      0.25974409
C       0.01920075      1.73692459      0.44260767
C      -1.13922946      0.99758287      0.21180329
O      -2.36792443      1.56965320      0.38842715
C      -1.07342560     -0.33678291     -0.19802521
C      -2.32373708     -1.13212591     -0.43630433
C       0.18761646     -0.92421470     -0.37730681
H       2.67370275     -1.60486922     -1.11181849
H       3.46267742     -0.10740882     -0.61840214
H       3.00889137     -1.31124582      0.61291785
H       2.16785349      1.72139801      0.44899522
H      -0.02903954      2.77155604      0.76658767
H      -2.24265567      2.49039947      0.66886403
H      -2.93255972     -0.65879533     -1.21342523
H      -2.09502888     -2.15013263     -0.76884358
H      -2.90715269     -1.20651879      0.48706738
H       0.25614989     -1.96509982     -0.68785634
