25
Nc1c2ccccc2nc2cc(Cl)ccc12
N      -0.15628635      2.53968096      0.27079899
C      -0.05339152      1.13701503      0.04979423
C       1.21336817      0.49396657      0.13294016
C       2.44218437      1.15961783      0.38268758
C       3.65280806      0.46755008      0.41944306
C       3.66094061     -0.90208490      0.21047846
C       2.45709083     -1.56842973     -0.02106339
C       1.23925513     -0.90139303     -0.05485762
N       0.13655071     -1.63320289     -0.25834917
C      -1.06265190     -1.04132322     -0.23601904
C      -2.17716307     -1.85333631     -0.38551853
C      -3.46581025     -1.32983365     -0.34839344
Cl     -4.82198084     -2.37185363     -0.53283634
C      -3.66182241      0.02844116     -0.15513720
C      -2.55281021      0.86154643     -0.01037468
C      -1.23159426      0.34692210     -0.06006440
H      -0.97625573      2.95270482     -0.16024408
H       0.67477134      3.04807486     -0.01217758
H       2.46799640      2.22925271      0.56879675
H       4.58100679      0.99821297      0.61470072
H       4.59420519     -1.45806489      0.23576030
H       2.46754936     -2.64593349     -0.17188546
H      -2.03008788     -2.92155520     -0.52573499
H      -4.66451522      0.44482605     -0.11185050
H      -2.73335732      1.91919937      0.15910617
