48
CCCCCCC(=O)N(C)S(=O)(=O)c1ccc(N(C)C)cc1
C      -7.15488968     -0.67266588     -0.62822782
C      -5.98702715     -0.51653215      0.33346241
C      -4.88819602      0.41744000     -0.18129024
C      -4.14917173     -0.13414280     -1.40348011
C      -3.06931067      0.81198047     -1.94612884
C      -1.91916180      1.10813726     -0.97995918
C      -1.11295459     -0.12749248     -0.62939621
O      -0.97696193     -1.05537553     -1.42166713
N      -0.58058281     -0.23212742      0.68672869
C      -0.21610691     -1.57114468      1.20447774
S       0.21640700      1.06009174      1.44952356
O       0.04813386      0.90272019      2.87979560
O      -0.11635847      2.31145206      0.80514286
C       1.92103545      0.72976928      1.06194300
C       2.78670832      0.26120546      2.04446256
C       4.12692974      0.00873679      1.72070039
C       4.64181103      0.20878800      0.42469777
N       5.98390284     -0.03367351      0.11209354
C       6.37537288     -0.15116037     -1.29227818
C       6.82421774     -0.75737744      1.06463146
C       3.73511744      0.71376680     -0.52827604
C       2.39208744      0.97395359     -0.22412683
H      -7.57182007      0.30144076     -0.90226467
H      -7.95018727     -1.26139590     -0.15982924
H      -6.85591140     -1.19196772     -1.54311533
H      -5.56428778     -1.50251696      0.55879202
H      -6.36910178     -0.11245889      1.27874260
H      -4.17733169      0.57127487      0.63827581
H      -5.31933532      1.39755585     -0.41816623
H      -3.70891133     -1.10751214     -1.15843425
H      -4.86464142     -0.31174806     -2.21451847
H      -2.66495772      0.37911976     -2.86978508
H      -3.53962621      1.76162002     -2.23004327
H      -1.23702602      1.82054014     -1.45705426
H      -2.31908648      1.56902536     -0.07300594
H       0.66750834     -1.95524503      0.68653884
H      -0.02919840     -1.56001147      2.28138023
H      -1.04798141     -2.26382430      1.03753887
H       2.44281804      0.09276028      3.06253557
H       4.76345340     -0.34930652      2.52483798
H       5.82007970     -0.95383952     -1.79002810
H       7.44265129     -0.37899310     -1.39191233
H       6.21899686      0.79177986     -1.82696007
H       7.85137315     -0.85391852      0.69541256
H       6.43930214     -1.76799837      1.24000653
H       6.89773317     -0.22028938      2.01640155
H       4.05728335      0.93132595     -1.54268939
H       1.73720289      1.37131193     -0.99548494
