48
CCCCCCCC(=O)OCn1cnc2c1c(=O)n(C)c(=O)n2C
C       5.57009168      2.19485150      1.62254080
C       5.45136566      0.73785056      1.20209380
C       4.08554128      0.16028707      1.57429030
C       3.95293196     -1.33421623      1.26687562
C       4.12205359     -1.72827908     -0.20412223
C       3.18702047     -1.02445842     -1.19122653
C       1.70681825     -1.28015990     -0.91187479
C       0.82069129     -0.65912209     -1.96579854
O       1.20118298     -0.03344009     -2.94445206
O      -0.48312236     -0.90870725     -1.66949791
C      -1.37955663     -0.25987560     -2.56598306
N      -2.72413500     -0.47945780     -2.06945417
C      -3.66746207     -1.29776068     -2.63423737
N      -4.79653570     -1.28016684     -1.95374479
C      -4.55605355     -0.42796537     -0.91859909
C      -3.29509204      0.08318825     -0.96260921
C      -2.78955934      0.99745805      0.00033050
O      -1.65677039      1.46581960     -0.05930256
N      -3.72047887      1.30051375      0.99801849
C      -3.32527094      2.22484799      2.04282583
C      -5.03847108      0.80198287      1.07266442
O      -5.79583129      1.14566228      1.98512396
N      -5.44093611     -0.08729238      0.07525863
C      -6.77883771     -0.65032978      0.08264976
H       6.55235147      2.59027955      1.34550878
H       4.80649313      2.80752750      1.13273824
H       5.45446191      2.30174785      2.70584159
H       6.24563754      0.15817420      1.68629381
H       5.61156573      0.67181707      0.12068602
H       3.29282573      0.72162859      1.06663074
H       3.91948378      0.30045257      2.64999357
H       2.97517591     -1.67850533      1.62445059
H       4.69737068     -1.88379829      1.85692761
H       3.97309402     -2.81233666     -0.28801503
H       5.15807534     -1.54452420     -0.51260114
H       3.42934184     -1.37940291     -2.20137404
H       3.38511222      0.05386428     -1.19854387
H       1.51360697     -2.35844911     -0.89632923
H       1.42396113     -0.85010418      0.05446960
H      -1.21146987      0.82217491     -2.60763370
H      -1.30787615     -0.69925995     -3.56713569
H      -3.48331771     -1.87844172     -3.52977390
H      -3.96438038      3.11229597      1.98890895
H      -2.28057335      2.53383290      1.95739898
H      -3.47495383      1.74973926      3.01795197
H      -7.29031990     -0.36807105     -0.84305531
H      -6.70721140     -1.74086236      0.14447012
H      -7.36803891     -0.29100930      0.93035008
