23
c1ccc(Oc2ccccc2)cc1
C      -3.57107943     -0.66365531      0.64705600
C      -3.45456229     -0.40267977     -0.71870716
C      -2.28581872      0.16970033     -1.22172538
C      -1.22951592      0.46576099     -0.35966511
O      -0.11882033      1.06048395     -0.91414005
C       1.11290939      0.57496775     -0.53744719
C       1.41605961     -0.78900270     -0.52683058
C       2.69758796     -1.21103157     -0.16993588
C       3.67591253     -0.27197963      0.15946195
C       3.37748090      1.09066103      0.12565457
C       2.09704693      1.51512658     -0.23061087
C      -1.35306809      0.22677422      1.01148279
C      -2.52313096     -0.34602600      1.51213198
H      -4.48275850     -1.10750569      1.03904543
H      -4.27514049     -0.64080368     -1.39032273
H      -2.19573828      0.38089698     -2.28356971
H       0.66494068     -1.52487230     -0.79962332
H       2.93457932     -2.27163474     -0.15509032
H       4.67433650     -0.60233407      0.43484117
H       4.14282176      1.82178045      0.37230360
H       1.86446604      2.57576241     -0.26509554
H      -0.54878338      0.48810251      1.69334176
H      -2.61972522     -0.53849173      2.57744460
