44
CCCCCCCCCOC(=O)c1ccc(N)cc1
C       6.95647066      1.77894828      0.97594266
C       6.66120767      0.28771566      1.02135159
C       5.47046812     -0.12631560      0.15412098
C       4.13753301      0.44708757      0.64056773
C       2.96856749     -0.08159308     -0.19564276
C       1.63578366      0.49146167      0.29141060
C       0.44313278      0.08826252     -0.58105228
C       0.13412390     -1.41190119     -0.53325044
C      -1.10894611     -1.76872254     -1.34583057
O      -2.25136239     -1.13630175     -0.75523278
C      -3.41784820     -1.37031060     -1.40606237
O      -3.55131763     -2.05368388     -2.40895598
C      -4.54348127     -0.66970835     -0.73031860
C      -5.83038617     -0.81827457     -1.26007655
C      -6.91955759     -0.17978303     -0.65771704
C      -6.73725436      0.64841910      0.45207674
N      -7.84252724      1.18517606      1.11960322
C      -5.46102279      0.74701556      1.01205556
C      -4.36485643      0.11167682      0.41716132
H       6.14814924      2.36218256      1.42644171
H       7.87248989      1.99722197      1.53436632
H       7.09849039      2.12052167     -0.05419367
H       6.49130999     -0.01911840      2.05992572
H       7.54897271     -0.25331176      0.67254302
H       5.41127748     -1.22182463      0.15513803
H       5.64800535      0.17919438     -0.88424698
H       3.98477947      0.18098287      1.69344385
H       4.15567822      1.54101907      0.58022102
H       2.95167477     -1.17537360     -0.13517106
H       3.12113912      0.18481077     -1.24843941
H       1.69858183      1.58683184      0.29682994
H       1.45509650      0.18099560      1.32771981
H      -0.43217652      0.65198118     -0.23601273
H       0.62609430      0.39473442     -1.61813219
H       0.98088598     -1.98488486     -0.92492741
H      -0.01938746     -1.70971048      0.51094847
H      -1.25085951     -2.85560402     -1.32965568
H      -0.99166240     -1.43333947     -2.38309407
H      -5.99544670     -1.44272554     -2.13603596
H      -7.91432689     -0.33673350     -1.06698303
H      -8.65017844      1.33979657      0.52400667
H      -7.62721682      1.99437068      1.69357690
H      -5.30667511      1.32228627      1.92153024
H      -3.38342255      0.22652774      0.87000572
