10
ClC(Cl)=CC(Cl)=C(Cl)Cl
Cl     -2.45376293     -1.70328982      1.39193755
C      -0.94325912     -0.93969962      1.03262285
Cl      0.14771752     -0.69857625      2.34957311
C      -0.65986910     -0.59285203     -0.23153575
C       0.56069110      0.03760875     -0.70139375
Cl      1.56832331     -1.04139096     -1.62985817
C       0.90451407      1.32259313     -0.48625515
Cl      2.38308175      2.01452402     -1.07700352
Cl     -0.13178548      2.42606766      0.36991318
H      -1.37565113     -0.82498489     -1.01800033
