36
Cc1c(C)c2c3ccccc3ccc2c2ccccc12
C       2.72042938     -2.18059600      0.56306388
C       1.78527307     -1.00575761      0.34299784
C       0.37709452     -1.19402737      0.42531349
C      -0.11060832     -2.48745523      1.05152390
C      -0.54915910     -0.16643788      0.02962715
C      -1.99282584     -0.34738307     -0.19849429
C      -2.66191430     -1.59416197     -0.34968682
C      -4.04669641     -1.71743754     -0.52288129
C      -4.83484944     -0.58413134     -0.58218089
C      -4.22618765      0.66158145     -0.50927347
C      -2.83319462      0.78258784     -0.34943675
C      -2.27745299      2.04862442     -0.37105060
C      -0.89851008      2.21110706     -0.30612503
C       0.00423545      1.13773791     -0.13588528
C       1.43125738      1.36536778     -0.11442811
C       2.02842019      2.64355900     -0.32548484
C       3.40777637      2.85922700     -0.31949603
C       4.25644001      1.79667791     -0.09864628
C       3.71569076      0.53117002      0.11095172
C       2.31676014      0.28279405      0.10324510
H       3.11827108     -2.16108038      1.58225677
H       3.54505711     -2.16818267     -0.15707912
H       2.22996628     -3.14356338      0.39315036
H      -1.06411347     -2.35255464      1.57022159
H       0.56718842     -2.81831445      1.84693610
H      -0.18443366     -3.28023823      0.30190377
H      -2.10159884     -2.52132895     -0.38597537
H      -4.49494104     -2.70227450     -0.62391379
H      -5.90946973     -0.66466335     -0.71596604
H      -4.85026189      1.54874674     -0.59927866
H      -2.90064319      2.93249677     -0.48868203
H      -0.55082293      3.23679463     -0.38005681
H       1.42095961      3.52296213     -0.51576851
H       3.80540800      3.85606748     -0.48794844
H       5.33254392      1.94270308     -0.08389932
H       4.42491181     -0.27061673      0.30044608
