37
CC1C(C)(C)C2=C(C(=O)CCC2)C1(C)C
C      -2.80709208     -0.89077451      0.13733269
C      -1.39612223     -0.47833867      0.55526362
C      -0.23760206     -1.35523818     -0.02991373
C       0.04124089     -2.54693639      0.90139316
C      -0.49452762     -1.88266398     -1.45008743
C       0.90276644     -0.36056538     -0.02877247
C       0.47226818      0.89987717      0.13749161
C       1.43454531      2.02731752      0.16451679
O       1.04886615      3.19014601      0.24760756
C       2.90998315      1.68141960      0.15046633
C       3.18032644      0.43613403     -0.68514343
C       2.33296245     -0.75327270     -0.23215807
C      -1.02222685      1.01932920      0.27796175
C      -1.44756634      1.87836043      1.48220728
C      -1.63964201      1.60515543     -1.00009049
H      -3.55526878     -0.26799879      0.63857785
H      -2.96658143     -0.80067455     -0.94111445
H      -3.00325676     -1.93064045      0.41879735
H      -1.37173752     -0.61341799      1.64928713
H      -0.84147798     -3.18973843      0.99087669
H       0.31730133     -2.21648017      1.90962614
H       0.86372060     -3.16589503      0.52472380
H      -1.34509955     -2.57267057     -1.47177449
H       0.37162935     -2.43609645     -1.83122583
H      -0.69752719     -1.07719532     -2.16166924
H       3.46224986      2.52694908     -0.27379796
H       3.23878687      1.53826136      1.18559142
H       4.24331929      0.17460794     -0.63562960
H       2.95513493      0.65438993     -1.73764928
H       2.41310166     -1.54298534     -0.98667251
H       2.72964361     -1.15741799      0.70657811
H      -2.52217688      1.77965496      1.67264784
H      -1.24717379      2.94205437      1.31585759
H      -0.91848179      1.58322482      2.39588720
H      -1.28121537      2.62543521     -1.18078204
H      -1.39168707      1.01770092     -1.88880407
H      -2.73138322      1.65898290     -0.92740682
