37
CC(=O)N1CCOc2cc(COc3ccccc3)cnc21
C      -4.04841750     -1.29053866     -2.10530062
C      -4.68913058     -0.31446572     -1.15171844
O      -5.92362857     -0.22350710     -1.14342913
N      -3.90624403      0.47446001     -0.32326932
C      -4.59105764      1.42728045      0.54723884
C      -3.71453132      2.63170315      0.83890963
O      -2.49848790      2.23750228      1.47813411
C      -1.87626700      1.21417399      0.80585828
C      -0.52049190      1.05038562      1.09142838
C       0.20594885      0.04935710      0.44994918
C       1.66216667     -0.18355479      0.74413406
O       2.36394390     -0.33912103     -0.48779664
C       3.70510889     -0.59592225     -0.41300016
C       4.45700247     -0.71568552      0.75684694
C       5.82814555     -0.98269243      0.68508900
C       6.45205209     -1.13033715     -0.55252909
C       5.70640626     -1.01094203     -1.72231884
C       4.33823302     -0.74456110     -1.65012986
C      -0.48923538     -0.75702881     -0.44046149
N      -1.80995063     -0.63095804     -0.71811016
C      -2.50673530      0.34231566     -0.09788835
H      -4.81541928     -1.67739042     -2.78500149
H      -3.29534078     -0.79465512     -2.72254646
H      -3.63180946     -2.14037171     -1.55962139
H      -4.83994501      0.89251114      1.47242217
H      -5.52733300      1.76301794      0.08853877
H      -4.23541284      3.31750775      1.51507598
H      -3.47422666      3.18822849     -0.07607168
H      -0.04244754      1.71596059      1.80554221
H       1.74714096     -1.08939883      1.35714171
H       2.07006306      0.67524201      1.29115812
H       4.01386105     -0.60764617      1.74078614
H       6.41080516     -1.07544101      1.59835782
H       7.51776235     -1.33763859     -0.60483437
H       6.18694862     -1.12423862     -2.69043956
H       3.76031534     -0.65124933     -2.56651368
H       0.01020809     -1.56230174     -0.97563544
