13
CCC1CO1
C      -1.60196707     -0.21866795      0.35881651
C      -0.54778999      0.64590134     -0.31235493
C       0.67992243     -0.14504167     -0.62928880
C       1.81556651     -0.25781522      0.35275633
O       1.86900434      0.64283420     -0.76387562
H      -1.22770522     -0.63216732      1.30115326
H      -1.88912230     -1.05739359     -0.28399775
H      -2.49854797      0.37050022      0.57450361
H      -0.30859363      1.49445373      0.33957161
H      -0.95517542      1.05965866     -1.24164277
H       0.51791853     -0.93807063     -1.34701050
H       2.44379467     -1.13862821      0.31250227
H       1.70269513      0.17443644      1.33886677
