56
CCN(CCO)C(=O)c1cc2cccnn2c1-c1cccc(C(=O)Nc2ccccc2)c1
C      -3.47888857      0.48962239     -1.44428329
C      -3.12991649     -0.98782684     -1.40159245
N      -1.69870068     -1.26433331     -1.57368310
C      -1.11115312     -1.05967609     -2.90354072
C      -0.48978219      0.32937546     -3.11415345
O       0.67427913      0.52329789     -2.31637937
C      -0.86290018     -1.75474494     -0.56282729
O       0.29923062     -2.10132226     -0.76043204
C      -1.43028260     -1.86723768      0.77608398
C      -1.99874015     -3.03238460      1.36077432
C      -2.39956497     -2.70077624      2.63395564
C      -3.01929056     -3.42997898      3.67453434
C      -3.27286769     -2.81814185      4.83586819
C      -2.87981612     -1.39646154      4.94088890
N      -2.31770751     -0.68334733      4.02001597
N      -2.08044319     -1.37222400      2.86213179
C      -1.46531162     -0.85127367      1.73307902
C      -0.92793645      0.51302907      1.64453686
C      -1.69643937      1.62897630      1.99616033
C      -1.17988769      2.91973668      1.86041226
C       0.10584768      3.10753524      1.35328276
C       0.88283389      2.00374397      0.98424551
C       2.24639598      2.23716910      0.42414219
O       2.84413894      3.25294881      0.76222429
N       2.68505909      1.28256109     -0.47605290
C       3.93809752      1.21674253     -1.11978938
C       4.13090483      0.16867301     -2.03024061
C       5.34258197      0.02819850     -2.71152099
C       6.37539634      0.93368804     -2.48634942
C       6.19503341      1.97553070     -1.57917791
C       4.98192651      2.11562167     -0.89663570
C       0.37227270      0.71214134      1.15932091
H      -4.51908220      0.64091213     -1.13908671
H      -3.37801459      0.88695117     -2.45807424
H      -2.83560954      1.07467647     -0.78316360
H      -3.66779760     -1.52015671     -2.19494454
H      -3.49696341     -1.40506233     -0.46152342
H      -1.89276188     -1.23153274     -3.65169756
H      -0.33719695     -1.81910037     -3.06314374
H      -0.19173296      0.43069670     -4.16338543
H      -1.19435562      1.13021692     -2.87995694
H       1.04782147      1.38577161     -2.57798546
H      -2.09655942     -4.00270247      0.89047681
H      -3.27584653     -4.47390998      3.52442858
H      -3.73796194     -3.30228491      5.68273612
H      -3.10327939     -0.92296577      5.91140347
H      -2.70527078      1.50124937      2.38245244
H      -1.78120612      3.77801896      2.14873017
H       0.50280251      4.11492630      1.24576898
H       2.01237005      0.57316862     -0.77052212
H       3.33963578     -0.55585798     -2.21461242
H       5.47857717     -0.79159022     -3.41164859
H       7.32108669      0.82613417     -3.01067639
H       6.99992028      2.68188395     -1.39315240
H       4.88584273      2.93506406     -0.19168334
H       0.99121278     -0.15371469      0.93426164
