29
CNC(=O)Oc1cccc(C(C)C)c1
C       4.69536992      0.33532287      1.73084074
N       3.70285639     -0.54255877      1.17470070
C       2.60769521     -0.06671215      0.50651826
O       2.31623851      1.11712110      0.40889558
O       1.91273198     -1.13463429     -0.03910879
C       0.74849209     -0.79292139     -0.73726023
C       0.71112172     -1.05100375     -2.10413979
C      -0.45329269     -0.77256583     -2.81490372
C      -1.57098318     -0.25327906     -2.15401670
C      -1.54387953     -0.00909005     -0.77041097
C      -2.77206250      0.55514558     -0.07887117
C      -3.32191528     -0.41414044      0.97047851
C      -2.48842213      1.92606411      0.54031529
C      -0.36715303     -0.29483206     -0.06217443
H       4.22341475      1.21988304      2.16678975
H       5.25018245     -0.20860833      2.49866225
H       5.37551722      0.64295950      0.93226631
H       3.89631374     -1.52821328      1.06690279
H       1.57865996     -1.45993665     -2.61190023
H      -0.49477780     -0.95880933     -3.88479954
H      -2.46852773     -0.04008212     -2.73113608
H      -3.56060055      0.69795720     -0.82970334
H      -4.25371013     -0.02925603      1.39889570
H      -2.61694867     -0.56967495      1.79439712
H      -3.53640366     -1.39225144      0.52560444
H      -2.10604305      2.62414976     -0.21274343
H      -3.40436831      2.35525127      0.96073153
H      -1.74893926      1.86695800      1.34637001
H      -0.31056644     -0.12195734      1.00879945
