28
CCCCCCCOC(N)=O
C      -4.62049389     -0.41279224     -0.58078447
C      -3.18272777     -0.65464888     -0.14669926
C      -2.53692386      0.62722445      0.38059182
C      -1.12617995      0.41407217      0.93684213
C      -0.10762132      0.00350255     -0.12876085
C       1.30102520     -0.08377314      0.45732637
C       2.32284191     -0.49864104     -0.59734490
O       3.62343042     -0.62041178     -0.00121663
C       4.35041196      0.51727092      0.04880059
N       5.54810428      0.26923746      0.62224066
O       4.01081701      1.61915687     -0.34910450
H      -5.23030258     -0.06214378      0.25797311
H      -4.66864208      0.33588708     -1.37798003
H      -5.06342400     -1.33991011     -0.95791888
H      -2.61966763     -1.04106312     -1.00280134
H      -3.16741634     -1.42718608      0.63065928
H      -3.16164838      1.03832773      1.18343879
H      -2.50868475      1.38237906     -0.41439967
H      -0.79819274      1.35170133      1.40274083
H      -1.15466062     -0.34025885      1.73257503
H      -0.37915589     -0.96934911     -0.55329018
H      -0.11890434      0.73181073     -0.94853909
H       1.32398482     -0.80308307      1.28546966
H       1.58831212      0.88170391      0.89093007
H       2.33963695      0.19753475     -1.44464262
H       2.06658703     -1.48464821     -1.00020047
H       6.20130520      1.02819608      0.74023100
H       5.76818922     -0.66009565      0.94342138
