44
C=CC1CN2CCC1CC2C(O)c1ccnc2ccccc12
C      -4.49124419      0.99247712     -2.51886092
C      -3.33557819      0.64061975     -1.94030477
C      -3.21365135      0.21052820     -0.49737663
C      -2.57000035     -1.19466353     -0.36406216
N      -1.54900573     -1.24760879      0.71842579
C      -2.17520546     -0.72509344      1.95999119
C      -2.53609741      0.76524932      1.82746947
C      -2.38340808      1.20053019      0.35701380
C      -0.89150125      1.06748994     -0.00854651
C      -0.39357276     -0.34320494      0.37833943
C       0.53808689     -0.98381484     -0.69840180
O       0.74594341     -2.36649427     -0.38946244
C       1.87269903     -0.27507262     -0.85970635
C       2.06025779      0.48140140     -2.02635063
C       3.23705454      1.18260884     -2.19080045
N       4.23216485      1.19341803     -1.28668916
C       4.08047769      0.46255432     -0.17139799
C       5.12202675      0.47468433      0.74671441
C       5.07039157     -0.25257178      1.93595065
C       3.95109270     -1.01842252      2.21806827
C       2.89020974     -1.04552611      1.31235513
C       2.92132005     -0.30449235      0.10411613
H      -4.52207080      1.29104555     -3.56272113
H      -5.42969355      0.99488862     -1.97266323
H      -2.43088053      0.65803843     -2.54437861
H      -4.22294161      0.16108396     -0.06331104
H      -3.35616526     -1.92835236     -0.14084409
H      -2.13080327     -1.53692615     -1.30845934
H      -3.07135644     -1.31239392      2.19739810
H      -1.49638082     -0.87054233      2.80938933
H      -1.88121960      1.37032000      2.46612868
H      -3.56474464      0.92981649      2.16901910
H      -2.72435150      2.23309325      0.22326014
H      -0.31042551      1.81881301      0.54081889
H      -0.74401722      1.27351539     -1.07344359
H       0.19696985     -0.25039286      1.29904589
H       0.01941275     -0.98414271     -1.66462224
H      -0.08241813     -2.63924389      0.05705109
H       1.30141925      0.52966498     -2.80074436
H       3.41541105      1.77784934     -3.08163501
H       6.00610076      1.06846749      0.52524355
H       5.90675997     -0.22302129      2.62860162
H       3.90081272     -1.60181598      3.13355016
H       2.03812229     -1.67436127      1.55683166
