45
CC1N(c2c(F)cc3c(=O)c(C(=O)O)cn(C4CC4)c3c2F)CC1(C)N
C      -4.03758074      1.62005962     -0.22264005
C      -3.40896294      0.33302934     -0.72889771
N      -2.14593373      0.03939647     -0.07866138
C      -0.85166460      0.52334042     -0.41775296
C      -0.64261613      1.55049233     -1.34687607
F      -1.66934307      2.10947509     -2.00272693
C       0.63061183      2.02624514     -1.64061089
C       1.74086888      1.46802643     -1.00376724
C       3.08682564      2.01089695     -1.30513334
O       3.24826262      2.89994683     -2.13864075
C       4.24475306      1.47663078     -0.56132720
C       5.62308417      1.98629102     -0.71039025
O       6.57235743      1.54989972     -0.07566241
O       5.75828836      2.98263053     -1.61182140
C       4.00568199      0.46703989      0.28787262
N       2.77826411     -0.12860726      0.52050799
C       2.71943868     -1.25364061      1.47419502
C       3.73892259     -2.36939926      1.48987113
C       2.34729796     -2.64495765      1.01969761
C       1.60351642      0.42018236     -0.07549478
C       0.29379911     -0.01777047      0.20938884
F       0.10661789     -0.96774947      1.14167222
C      -2.45835630     -1.37168322      0.04053476
C      -3.94591635     -0.99756077     -0.11598779
C      -4.78334736     -1.01095566      1.14735950
N      -4.54734859     -1.81437427     -1.18875909
H      -4.01536421      1.69273677      0.86974113
H      -3.52565924      2.50122578     -0.61940132
H      -5.08294625      1.68133493     -0.54300191
H      -3.31148074      0.31728126     -1.82367256
H       0.73924323      2.83070513     -2.36367754
H       4.91710001      3.23884406     -2.06323969
H       4.82095904      0.03573037      0.86669022
H       2.34411279     -0.93702758      2.44572444
H       4.03787339     -2.76393476      2.45419883
H       4.52471011     -2.38628739      0.74412031
H       2.19351589     -2.81566728     -0.03914904
H       1.69145389     -3.22119665      1.66170171
H      -2.01010197     -1.96233139     -0.76741675
H      -2.17549216     -1.78873527      1.01110587
H      -4.30379792     -0.44614618      1.95404990
H      -4.93160627     -2.03357437      1.51228889
H      -5.77088177     -0.57011084      0.97298632
H      -5.45448401     -1.47040823     -1.50302406
H      -4.69467472     -2.78932263     -0.92905922
