30
O=C(Cn1cnc([N+](=O)[O-])n1)Nc1cc(C(F)(F)F)ccc1Cl
O      -0.37298313     -1.79418152     -1.92033504
C       0.44056830     -0.91474128     -1.65130459
C       1.87428140     -1.03958309     -2.11442132
N       2.77291196     -1.13634453     -0.98839954
C       3.29826074     -2.26014956     -0.42885425
N       4.07716902     -1.93129120      0.57763613
C       3.98572573     -0.55828294      0.59481888
N       4.68959037      0.27421237      1.56144103
O       5.41226151     -0.30449449      2.38713874
O       4.52228827      1.50281793      1.49709481
N       3.18859251     -0.02171479     -0.34953759
N       0.18272152      0.25106720     -0.95311117
C      -1.04798230      0.69274329     -0.41061444
C      -2.25806168      0.01794026     -0.60385830
C      -3.45827681      0.50059389     -0.04542656
C      -4.74562564     -0.26154481     -0.26126781
F      -5.85453836      0.44156205      0.10230219
F      -4.78721883     -1.41973836      0.45155411
F      -4.93820168     -0.61018688     -1.56290959
C      -3.43315694      1.67314142      0.72255656
C      -2.23532563      2.35900377      0.91984898
C      -1.05391131      1.87329639      0.35589079
Cl      0.40469277      2.76376581      0.63100672
H       2.15687253     -0.17050948     -2.71740100
H       1.99123968     -1.93960223     -2.72669382
H       3.08768215     -3.26266853     -0.77946077
H       0.98486244      0.84053498     -0.71703675
H      -2.30738757     -0.89435548     -1.19396210
H      -4.34889480      2.05913916      1.16963434
H      -2.22815623      3.26957063      1.51465156
