45
COc1ccc2cc(C(C)C(=O)OCCOC(=O)CN)ccc2c1
C      -5.65546977      2.38759299      1.90587846
O      -4.66788531      1.56241005      2.50974832
C      -3.78033014      0.94460970      1.67198878
C      -3.76206891      1.04140033      0.28244653
C      -2.79305502      0.35333927     -0.45616703
C      -1.82945708     -0.44323437      0.18179193
C      -0.85031354     -1.13911699     -0.54840343
C       0.11100417     -1.93866722      0.09306764
C       1.19241591     -2.66528524     -0.68927099
C       0.63372563     -3.56205941     -1.79708296
C       2.24536681     -1.68479319     -1.18879544
O       3.19948684     -1.32083507     -0.50911677
O       1.95005588     -1.21223622     -2.43380943
C       2.77329201     -0.13012657     -2.91055074
C       2.10055286      1.20482042     -2.58694300
O       1.96055927      1.39313214     -1.17071540
C       3.08717120      1.80039709     -0.52005399
O       4.14687053      2.08803885     -1.06459401
C       2.82573731      1.86365048      0.98193345
N       4.05720432      2.19941690      1.72472719
C       0.08710816     -2.02181696      1.49108958
C      -0.88037534     -1.33532539      2.22882650
C      -1.84499720     -0.54384721      1.58835866
C      -2.82346115      0.15393610      2.31576142
H      -6.27363366      2.80872778      2.70468622
H      -5.19661883      3.22172005      1.36560724
H      -6.31013418      1.80398364      1.25094693
H      -4.48491883      1.64134754     -0.26012434
H      -2.79904725      0.44449454     -1.54036066
H      -0.83514310     -1.04418348     -1.63296806
H       1.72666383     -3.34295063     -0.00856911
H       1.44643162     -4.08652981     -2.31336710
H       0.07790442     -3.00029198     -2.55643755
H      -0.04603725     -4.31413066     -1.38015898
H       3.78909027     -0.19325938     -2.50308246
H       2.85139071     -0.24635001     -3.99673281
H       2.64102112      2.04558172     -3.03637974
H       1.08417484      1.21026793     -2.99531069
H       2.07217124      2.63249637      1.17273629
H       2.45762613      0.89236046      1.32565054
H       4.47130074      3.02480905      1.28328985
H       4.73625348      1.45705148      1.54043824
H       0.82717371     -2.61643170      2.02418593
H      -0.87203129     -1.42009789      3.31393811
H      -2.84677518      0.08598448      3.40177208
