14
O=C(O)CC(Cl)C(=O)O
O       1.47208948      1.23750012     -0.53350581
C       1.49326834      0.07895194     -0.15580387
O       2.54678367     -0.71542359     -0.42187300
C       0.44188162     -0.62599091      0.64697908
C      -0.78139555      0.26756572      0.79594446
Cl     -1.93247227     -0.49418526      1.94057593
C      -1.53947745      0.52250619     -0.49497421
O      -2.41904217      1.35605500     -0.65576957
O      -1.20860087     -0.29277059     -1.51703125
H       3.16022222     -0.15325634     -0.94090943
H       0.19174004     -1.57117020      0.15210721
H       0.87319783     -0.84705052      1.63030051
H      -0.49804783      1.23979282      1.21429399
H      -1.80014706     -0.00252437     -2.24517239
