43
CC(C)CC(NC(=O)C(N)Cc1ccc(O)cc1)C(=O)O
C      -4.51085613     -1.50337883      1.82282851
C      -3.30786610     -1.16499984      0.93816322
C      -3.09606195     -2.27510772     -0.09195562
C      -3.51666918      0.21488168      0.28154749
C      -2.34051822      0.70252236     -0.57347929
N      -1.12854861      0.83566711      0.22710366
C       0.11606013      0.82570089     -0.38050216
O       0.28980567      0.48494222     -1.54476343
C       1.23339226      1.29326422      0.58599026
N       0.71843893      2.48037090      1.32922011
C       2.54453068      1.61696785     -0.15137030
C       3.41953997      0.40038908     -0.35844480
C       4.25949279     -0.05056977      0.67095461
C       5.05875956     -1.17992061      0.48762544
C       5.01856090     -1.86302621     -0.72109637
O       5.81293995     -2.96293688     -0.85709076
C       4.19127698     -1.43485888     -1.75337319
C       3.39313003     -0.30332013     -1.57028353
C      -2.67862226      2.07370880     -1.16955387
O      -2.25843993      3.15986867     -0.79654152
O      -3.55918962      2.00129217     -2.18987945
H      -5.43190079     -1.57003328      1.23369139
H      -4.65494866     -0.73835231      2.59311592
H      -4.36323831     -2.46252940      2.33050026
H      -2.42329955     -1.12471221      1.58566913
H      -3.92298713     -2.31447345     -0.80896725
H      -2.16622009     -2.12910962     -0.64980903
H      -3.02783709     -3.25216007      0.39865840
H      -4.42459642      0.18604484     -0.33571205
H      -3.71389477      0.95388767      1.07073172
H      -2.13990414      0.02343045     -1.40899800
H      -1.15450140      1.47820782      1.01930273
H       1.38453028      0.49016845      1.31743811
H       0.53961640      3.23058808      0.65548109
H       1.45713486      2.83008363      1.93984705
H       2.34698516      2.10517822     -1.11453133
H       3.13449797      2.34246258      0.42572355
H       4.29867450      0.47411819      1.62261325
H       5.70914824     -1.52660872      1.28537256
H       5.66790796     -3.33656733     -1.74171972
H       4.14826200     -1.96367801     -2.69999139
H       2.74065758      0.02116568     -2.37948604
H      -3.66324244      2.93143172     -2.48076999
