36
Cc1cc2nc3ccc(N(C)C)cc3[s+]c2cc1N.[Cl-]
C       5.66709023      0.78577658      0.79225014
C       4.34861412      0.19146286      0.37877348
C       3.15750467      0.76695689      0.86878123
C       1.89736627      0.31360516      0.51620599
N       0.84757345      0.95580024      1.06390593
C      -0.43291512      0.63032629      0.79842367
C      -1.40874606      1.36662308      1.43726752
C      -2.78131495      1.12894701      1.24360485
C      -3.25343469      0.13302382      0.37868000
N      -4.61743578     -0.11436095      0.19826057
C      -5.04792730     -0.95560435     -0.91819499
C      -5.58725471      0.88536642      0.64437941
C      -2.26080950     -0.62635704     -0.25797674
C      -0.88466572     -0.38554657     -0.06166655
S       0.27612605     -1.42435782     -0.95007641
C       1.84367581     -0.76409396     -0.38727940
C       3.01620774     -1.35626833     -0.88413891
C       4.27625445     -0.92239250     -0.46707002
N       5.41807959     -1.46506177     -1.07061075
Cl      0.00000000      0.00000000      0.00000000
H       5.53136453      1.68192953      1.40701014
H       6.24639794      1.07951272     -0.08909012
H       6.23935032      0.06222906      1.38163531
H       3.21755988      1.61647492      1.54822157
H      -1.10678107      2.15889106      2.11952376
H      -3.46624319      1.75805688      1.80424742
H      -4.65256791     -1.97261876     -0.82341168
H      -4.73665567     -0.52642444     -1.87697530
H      -6.13863292     -1.05929233     -0.94104782
H      -5.53363902      1.03367824      1.72821930
H      -5.43009812      1.84146927      0.13298342
H      -6.61422332      0.56432470      0.43655570
H      -2.53593533     -1.43502104     -0.92830349
H       2.94147097     -2.16887107     -1.60287275
H       5.29659137     -2.41488919     -1.40882332
H       6.26805298     -1.36329459     -0.52596514
