29
C=CCN1CCc2nc(N)sc2CC1
C      -3.80971587      1.65397613      0.83607993
C      -3.02612450      1.20777779     -0.15516957
C      -2.75566688     -0.24525266     -0.43730651
N      -1.34763335     -0.66467543     -0.33128132
C      -0.50550124     -0.01772191     -1.36099677
C       0.81134492     -0.74846247     -1.66611721
C       1.83348574     -0.58571503     -0.59510983
N       3.10047730     -0.13067471     -0.91875428
C       3.84582775     -0.07581491      0.15668455
N       5.12561295      0.33347822      0.14167141
S       3.06838732     -0.53503630      1.61668569
C       1.63400734     -0.85175748      0.74408679
C       0.38809309     -1.34418700      1.39842285
C      -0.84022715     -0.48580394      1.04676093
H      -3.97291886      2.71791106      0.97829280
H      -4.30124775      0.97427415      1.52523500
H      -2.56760177      1.93284595     -0.82272093
H      -3.12376041     -0.47313386     -1.44611190
H      -3.36010817     -0.87914972      0.22512079
H      -1.06324109     -0.00884206     -2.30710091
H      -0.30638779      1.03137870     -1.10557728
H       1.21692553     -0.35233901     -2.60567718
H       0.62268088     -1.81583609     -1.83511592
H       5.38839530      0.85348554     -0.68780371
H       5.49104343      0.72398877      1.00085044
H       0.50627167     -1.34103579      2.48942761
H       0.21119695     -2.38800060      1.10976314
H      -0.63784947      0.57261482      1.25832767
H      -1.62576588     -0.79999220      1.74743373
