7
O=P([O-])([O-])O.[Ca+2]
O      -1.08922119      0.28159746      1.32843886
P      -0.44213891     -0.03592459     -0.00007633
O      -0.96775662     -1.20880866     -0.79541085
O      -0.03416489      1.17246037     -0.82472503
O       1.06495256     -0.47307790      0.39288669
Ca      0.00000000      0.00000000      0.00000000
H       1.46832905      0.26375333     -0.10111333
