43
CCCCOP(=O)(CCCC)OCCCC
C      -5.26655532     -2.38130429      1.35105961
C      -4.48295911     -1.59817383      0.30996468
C      -3.02155669     -1.43380568      0.71706848
C      -2.23274803     -0.64963317     -0.32303343
O      -0.88907728     -0.54017708      0.11899338
P       0.10118775      0.38969435     -0.75246191
O      -0.03333492      0.21096514     -2.23349742
C      -0.18496254      2.05048683     -0.14487515
C       0.75004035      3.08331466     -0.76639194
C       0.59644033      4.48392943     -0.17407682
C      -0.75888897      5.11491433     -0.45299481
O       1.55145169      0.00181204     -0.16251840
C       2.08216653     -1.25537062     -0.55099299
C       3.38927273     -1.48079460      0.19709281
C       4.02578882     -2.81794652     -0.17079169
C       5.33012133     -3.03886610      0.57828405
H      -5.25124752     -1.87092835      2.31937603
H      -4.84843494     -3.38419299      1.48426285
H      -6.31036851     -2.48712747      1.03933986
H      -4.54508914     -2.11814496     -0.65307263
H      -4.94570916     -0.61329735      0.17743712
H      -2.95215428     -0.92308050      1.68575286
H      -2.55466610     -2.41611340      0.86228297
H      -2.24854221     -1.16843549     -1.28717462
H      -2.65869480      0.35039735     -0.45313833
H      -0.06747193      2.04893567      0.94445526
H      -1.22526597      2.31367942     -0.35942564
H       1.78605735      2.75474147     -0.62104936
H       0.58886083      3.11490963     -1.85047899
H       0.76832768      4.45254162      0.90809448
H       1.37482262      5.12837159     -0.59977734
H      -1.56465054      4.57472567      0.05252234
H      -0.97183255      5.13058190     -1.52651814
H      -0.77410090      6.14750081     -0.08957209
H       2.25515225     -1.25115806     -1.63223838
H       1.36194382     -2.04477028     -0.31126990
H       4.08037703     -0.65748331     -0.02321204
H       3.20190278     -1.43357553      1.27721299
H       3.33439588     -3.63615141      0.06201180
H       4.21981254     -2.85394736     -1.24909187
H       5.16554324     -3.04070047      1.66053408
H       6.05592542     -2.25414059      0.34213131
H       5.76872042     -4.00218253      0.29977692
