15
O=c1cnc2ncncc2[nH]1
O      -3.37769944      0.59283052      0.05016211
C      -2.21851036      0.21265809      0.03836548
C      -1.90696335     -1.27117296      0.07755513
N      -0.70793225     -1.76628717      0.06847534
C       0.36466571     -0.85979575      0.01898131
N       1.58045981     -1.42596725      0.01174107
C       2.61496181     -0.57569251     -0.03525692
N       2.54111282      0.76746037     -0.07494249
C       1.29920831      1.28922856     -0.06581292
C       0.16503792      0.51432497     -0.01910803
N      -1.12910229      1.04657261     -0.00924127
H      -2.79043437     -1.92720578      0.11554413
H       3.60810707     -1.01282966     -0.04194728
H       1.25584253      2.37288530     -0.09815962
H      -1.29875392      2.04299065     -0.03635605
