16
Nc1nc(S)c2nc[nH]c2n1
N       3.14767575      0.04539758     -0.28508209
C       1.77861859      0.12649635     -0.13182764
N       1.25263566      1.36180929     -0.11865495
C      -0.08882216      1.49423877      0.02168649
S      -0.81960148      3.09643477      0.05149659
C      -0.88733862      0.35877085      0.13496799
N      -2.24350227      0.14551322      0.28346830
C      -2.37595724     -1.16411484      0.33073977
N      -1.17102353     -1.80381209      0.21615057
C      -0.20934784     -0.84459015      0.08849100
N       1.10840581     -1.03469044     -0.05116056
H       3.49603179      0.89302247     -0.71220257
H       3.40587163     -0.83272136     -0.71100664
H      -2.07961513      2.66061373      0.21119404
H      -3.30785180     -1.70307033      0.44555951
H      -1.00617917     -2.79929782      0.22618018
