36
O=C(O)CNC(=O)CNS(=O)(=O)c1ccc2ccccc2c1
O       6.03789461     -0.36125368     -3.45169333
C       5.25787914      0.26660583     -2.74614874
O       5.04166680      1.58717093     -2.93376806
C       4.57176644     -0.34163378     -1.52116374
N       3.20727238      0.09315351     -1.23186919
C       2.93046317      1.33136148     -0.70893251
O       3.76443641      2.23538813     -0.74828265
C       1.53654728      1.51239015     -0.12103569
N       1.46870802      0.91469739      1.21167623
S       0.97447359     -0.66702779      1.39558707
O       1.41447282     -1.39101905      0.22085703
O       1.36663354     -1.06544352      2.72684526
C      -0.78848125     -0.51392785      1.35938536
C      -1.45567566     -0.05810738      2.49705819
C      -2.84615430      0.05803277      2.47618398
C      -3.57786169     -0.28641703      1.32757330
C      -4.97665333     -0.17287047      1.29398361
C      -5.69321459     -0.52269864      0.14844469
C      -5.02178868     -0.98905728     -0.97800481
C      -3.63140069     -1.10865613     -0.96241820
C      -2.89491653     -0.76130058      0.18137978
C      -1.49699074     -0.87660439      0.20994043
H       4.56325060      1.99838777     -2.17556506
H       4.51930924     -1.42447890     -1.67595530
H       5.19515698     -0.13718291     -0.64451124
H       2.57413963     -0.65577652     -0.93816635
H       1.33212579      2.58475048     -0.03855741
H       0.78675167      1.09515774     -0.80019805
H       2.07829185      1.27136364      1.94803611
H      -0.90559690      0.20424994      3.39811825
H      -3.35873081      0.41598946      3.36706566
H      -5.52200376      0.18746536      2.16386544
H      -6.77626159     -0.43177172      0.13709143
H      -5.58045028     -1.26188588     -1.86973414
H      -3.12827799     -1.47812101     -1.85375423
H      -0.96678117     -1.25093009     -0.66333312
