13
N#Cc1ccc(Cl)cc1
N       3.70696365      0.12661069     -0.09898965
C       2.54762031      0.08701353     -0.06803138
C       1.11487660      0.03807845     -0.02977196
C       0.45518623     -1.19527500      0.03330072
C      -0.94156474     -1.24227676      0.07057266
C      -1.67606964     -0.05724587      0.04475794
Cl     -3.39421824     -0.11592898      0.09063919
C      -1.02649413      1.17505807     -0.01801745
C       0.37020739      1.22346624     -0.05534269
H       1.02171307     -2.12484863      0.05379664
H      -1.44861176     -2.20289819      0.11952505
H      -1.59974490      2.09878203     -0.03812109
H       0.87013615      2.18946443     -0.10431798
