23
CC=Cc1ccc(OC)cc1
C      -4.43974120     -0.06040383      0.22754160
C      -2.97650494     -0.24736803     -0.01155014
C      -2.04478475      0.65227744      0.34149497
C      -0.60407262      0.48797274      0.10447602
C       0.04059378     -0.74881794      0.22802079
C       1.42246929     -0.86321021      0.02503361
C       2.17997823      0.26240732     -0.29501615
O       3.52883215      0.28999672     -0.51740091
C       4.21972106     -0.94950698     -0.42774447
C       1.54412831      1.50021205     -0.40373469
C       0.16543967      1.61538620     -0.20045222
H      -4.82129626     -0.87308869      0.85313587
H      -4.66065787      0.88783029      0.72768135
H      -4.97787714     -0.07736356     -0.72510486
H      -2.69346433     -1.16848515     -0.51516840
H      -2.34116865      1.58430101      0.81799210
H      -0.52283077     -1.63945205      0.49561551
H       1.87157746     -1.84474486      0.13093838
H       4.15126326     -1.36726936      0.58213378
H       5.27661577     -0.75900581     -0.63783312
H       3.85454857     -1.66059377     -1.17617106
H       2.12680653      2.38491300     -0.64830150
H      -0.29957554      2.59401349     -0.29266285
