24
COc1ccc([N+](=O)[O-])cc1OC(C)=O
C      -0.52751290      3.09870415      0.48518714
O       0.17399517      1.97827663     -0.03909925
C      -0.50929075      0.79479429     -0.11398239
C      -1.87569710      0.63147858      0.12541794
C      -2.47026859     -0.63147628     -0.00308681
C      -1.69394301     -1.73719402     -0.38169473
N      -2.32468951     -3.05441340     -0.52506261
O      -3.53188669     -3.14661346     -0.26046918
O      -1.61504554     -3.99513032     -0.90835715
C      -0.32715161     -1.59470536     -0.62985250
C       0.24652241     -0.33231144     -0.47613946
O       1.61244674     -0.19683155     -0.74663668
C       2.37880793     -0.23513705      0.41133782
C       3.80843110      0.04189797      0.05292259
O       1.98822033     -0.48118776      1.54535053
H      -0.89933886      2.89756376      1.49542382
H      -1.34031758      3.40005672     -0.18350523
H       0.17696906      3.93352258      0.54969129
H      -2.51016584      1.46560049      0.40904895
H      -3.53687302     -0.73306354      0.19083197
H       0.29223988     -2.43664421     -0.92598016
H       4.18995119     -0.75489222     -0.59015740
H       3.88450858      1.01097873     -0.44685831
H       4.41008861      0.07672672      0.96566981
