15
Fc1ccccc1CCl
F      -0.81091993      2.17117899     -0.78021116
C      -0.07153615      1.12500516     -0.38480340
C       1.30741038      1.28389388     -0.27709519
C       2.09661310      0.20930164      0.12772839
C       1.50046266     -1.01669629      0.42298959
C       0.11577014     -1.16968477      0.31232450
C      -0.68813010     -0.09511322     -0.09793980
C      -2.17531006     -0.24093721     -0.21399487
Cl     -2.93406537     -0.24190055      1.39245071
H       1.75589160      2.24505014     -0.50764341
H       3.17354232      0.32728371      0.21681789
H       2.11435828     -1.85484290      0.74501906
H      -0.33413390     -2.13048752      0.55565985
H      -2.42843507     -1.18206057     -0.71339457
H      -2.62151791      0.57000952     -0.79790760
