39
CC(=O)c1ccc(OC2OC(CO)C(O)C(O)C2O)cc1
C       5.49975727      1.86187841     -1.86124537
C       5.26081774      0.39295155     -1.62885420
O       6.14352707     -0.43571696     -1.84164960
C       3.92569407     -0.05325198     -1.12999274
C       2.88884060      0.84572093     -0.85628658
C       1.65134923      0.38020028     -0.38962627
C       1.44068922     -0.98375198     -0.18822142
O       0.28599487     -1.56388969      0.25438558
C      -0.71680402     -0.71173410      0.82504380
O      -1.42925688     -0.01420573     -0.20036701
C      -2.44838681      0.84267717      0.32256016
C      -3.11381662      1.54635117     -0.87129578
O      -4.14118038      2.43443647     -0.44090992
C      -3.49354925      0.08457503      1.17079945
O      -4.34770292      1.01669576      1.84805677
C      -2.80304338     -0.80882379      2.21640226
O      -3.74834283     -1.70549294      2.82115944
C      -1.68594784     -1.63597927      1.58450753
O      -2.29296134     -2.59878036      0.69092463
C       2.47258133     -1.88076882     -0.47161135
C       3.70831211     -1.42185039     -0.93555123
H       5.40006320      2.41484454     -0.92370182
H       4.80795521      2.24381610     -2.61640891
H       6.51918463      2.00554176     -2.23302210
H       3.01106127      1.91511761     -1.00219504
H       0.86822422      1.11057700     -0.21202241
H      -0.25961564     -0.00350771      1.52995846
H      -1.98024155      1.61759816      0.94507009
H      -3.54792132      0.81113592     -1.55821668
H      -2.36605324      2.11668397     -1.43359458
H      -4.48047676      2.87762367     -1.24084837
H      -4.13285406     -0.53610321      0.53113445
H      -4.64576695      1.66545834      1.17493220
H      -2.40238396     -0.18496839      3.02404381
H      -3.92860312     -2.38842777      2.14471022
H      -1.15652121     -2.22303064      2.34308546
H      -1.58056941     -2.88296722      0.08419484
H       2.31937033     -2.94821855     -0.32917709
H       4.49857714     -2.14059643     -1.14617068
