24
CC[NH+](CC)CC.[Br-]
C       2.33325939     -0.60215317     -0.81241108
C       1.47660365      0.10614420      0.22229504
N       0.00530469     -0.00463969     -0.14853332
C      -0.80455087      1.16054204      0.40009485
C      -0.65664905      2.37317288     -0.50202051
C      -0.58209090     -1.34536865      0.26609804
C      -1.74443681     -1.71169738     -0.63994647
Br      0.00000000      0.00000000      0.00000000
H       2.17706698     -0.17756452     -1.80958903
H       3.39245138     -0.48634682     -0.56112495
H       2.11994770     -1.67353268     -0.86124014
H       1.74351961      1.16644731      0.24692314
H       1.60348097     -0.31281493      1.22609510
H      -0.05165932      0.04518181     -1.17482672
H      -0.46283983      1.35680188      1.42183629
H      -1.85580027      0.86061149      0.43185401
H      -0.98844909      2.14812082     -1.52098898
H       0.37666665      2.72759793     -0.55082619
H      -1.27159080      3.19597697     -0.12349131
H      -0.87990697     -1.27203035      1.31736723
H       0.20025072     -2.10399784      0.17382053
H      -1.42643578     -1.76255294     -1.68652396
H      -2.56587684     -0.99349006     -0.56814804
H      -2.13826522     -2.69440831     -0.36133984
