46
O=C1CCCCCCC/C=C\CCCCCCO1
O       1.41652143      3.60583527      2.32401938
C       1.15682413      3.24074055      1.18363242
C      -0.02739956      3.72673118      0.38778157
C      -1.31841591      3.05392676      0.84501452
C      -1.64790444      1.78342811      0.04038925
C      -2.97160546      1.17846134      0.51794437
C      -3.58721725      0.14422617     -0.43177849
C      -3.07346448     -1.29334452     -0.27867872
C      -1.80372587     -1.58756350     -1.08400757
C      -1.52555906     -3.07033356     -1.13420681
C      -0.41441500     -3.70350786     -0.72139749
C       0.78168202     -3.06200509     -0.07844686
C       1.77711232     -2.57112714     -1.13206342
C       2.92150417     -1.72638695     -0.55917331
C       2.41014689     -0.48434379      0.17930152
C       3.50488154      0.56200411      0.39182394
C       2.97880967      1.75723241      1.18023861
O       1.87170495      2.32871965      0.47025216
H       0.15330643      3.58244490     -0.68738663
H      -0.09131367      4.81207869      0.54491486
H      -2.14016040      3.76937998      0.71728314
H      -1.27011095      2.80925342      1.91129375
H      -1.72372197      2.04687853     -1.02337545
H      -0.83706080      1.05599717      0.15461374
H      -2.84825810      0.75164416      1.52143504
H      -3.70246693      1.99308477      0.61874876
H      -3.50896605      0.47747400     -1.47409730
H      -4.66300491      0.11513032     -0.20522974
H      -2.92255255     -1.53778953      0.78414363
H      -3.87303161     -1.96067532     -0.63736102
H      -1.93151022     -1.23762426     -2.11815259
H      -0.95760490     -1.03453945     -0.66831276
H      -2.30654703     -3.67439704     -1.59402063
H      -0.35485842     -4.78298638     -0.85786856
H       0.44810418     -2.24938999      0.57376981
H       1.26652022     -3.79271666      0.58008952
H       1.25385457     -1.97505299     -1.88966534
H       2.20499535     -3.43217532     -1.65926109
H       3.56935176     -1.42296631     -1.39413709
H       3.53617504     -2.33533213      0.12077160
H       2.01617741     -0.78148610      1.16067118
H       1.57932775     -0.03988235     -0.38312641
H       4.35157862      0.12146404      0.92625988
H       3.87140375      0.90179307     -0.58275169
H       3.76660659      2.51156913      1.28295626
H       2.66428675      1.42612849      2.17715006
