35
CC(C)(C)OOC(C)(C)c1ccccc1
C      -3.91821320     -0.95226097     -0.24410561
C      -2.68897818     -0.17924111      0.24668721
C      -2.76688442     -0.01844527      1.76849164
C      -2.63525956      1.18162604     -0.45492246
O      -1.55357278     -0.98458615     -0.11264654
O      -0.35476004     -0.27898848      0.33814237
C       0.73426156     -0.62060502     -0.54807770
C       0.37153092     -0.21736374     -1.98771622
C       0.99692743     -2.13253502     -0.44052773
C       1.98493466      0.15830925     -0.10120317
C       3.21488068     -0.00795061     -0.76751146
C       4.35496943      0.69695220     -0.37208959
C       4.29053766      1.58421787      0.69748093
C       3.08683738      1.76700622      1.37105326
C       1.94609454      1.06222809      0.97585392
H      -3.86835356     -1.11630296     -1.32686586
H      -3.96369141     -1.94582481      0.21684851
H      -4.84901819     -0.42224731     -0.01670806
H      -1.91795267      0.55650683      2.15444690
H      -3.68513003      0.49614930      2.07065980
H      -2.73419515     -0.99490582      2.26480979
H      -2.52547474      1.05713863     -1.53794640
H      -1.77641075      1.77279988     -0.11891037
H      -3.54078759      1.76683807     -0.26286035
H       1.17760178     -0.43331557     -2.69672394
H      -0.52118171     -0.74430861     -2.34191537
H       0.14650716      0.85418618     -2.04512227
H       1.82886411     -2.45924741     -1.07280934
H       0.11687848     -2.71495079     -0.73491178
H       1.22415045     -2.41330134      0.59486185
H       3.30056189     -0.69224521     -1.60877490
H       5.29321011      0.55161630     -0.90116394
H       5.17638351      2.13245139      1.00604784
H       3.03139489      2.45893526      2.20745367
H       1.02333732      1.23166468      1.52695898
