13
C=C(C)C(N)=O
C      -0.07721815      1.45766447     -0.38457760
C      -0.32609588      0.20663152      0.03745463
C      -1.64527338     -0.47571382     -0.15764771
C       0.69313839     -0.57935970      0.78996843
N       1.98674737     -0.38143662      0.42162844
O       0.38786088     -1.40527100      1.63960313
H      -0.83489899      2.02969164     -0.91161364
H       0.86385233      1.96134682     -0.19006747
H      -2.33851662      0.13755582     -0.74321735
H      -1.50993478     -1.42248400     -0.69095979
H      -2.11963983     -0.68355986      0.80704293
H       2.24068161      0.13813975     -0.40500022
H       2.67929706     -0.98320504      0.84611272
