29
O=C(OCc1ccccc1)c1ccc(O)cc1
O       1.10418487     -2.62947777      0.00512805
C       0.98514358     -1.42025206      0.12442211
O      -0.17677637     -0.72936221      0.06683744
C      -1.32618729     -1.54892453     -0.15541648
C      -2.53187941     -0.64643370     -0.19475692
C      -3.22563743     -0.33427814      0.98290584
C      -4.33042046      0.51819303      0.94854231
C      -4.74668886      1.07305340     -0.26024410
C      -4.05643375      0.78032596     -1.43505154
C      -2.95139685     -0.07190156     -1.40287472
C       2.13071757     -0.49908802      0.35740750
C       3.41758521     -1.05202199      0.44453752
C       4.52764499     -0.23133882      0.66238757
C       4.34579271      1.14169528      0.79246445
O       5.39863765      1.98034301      1.00571285
C       3.07741812      1.70543739      0.70864927
C       1.96633105      0.88701959      0.49092853
H      -1.23037610     -2.08866151     -1.10574129
H      -1.43261986     -2.28216039      0.65368848
H      -2.90593581     -0.75225538      1.93496730
H      -4.86408112      0.75232559      1.86597762
H      -5.60599069      1.73790480     -0.28590230
H      -4.37640561      1.21890376     -2.37662872
H      -2.41614982     -0.28365776     -2.32591700
H       3.55911321     -2.12667485      0.34263615
H       5.51453875     -0.67903406      0.72660742
H       6.21516492      1.45536649      1.04183645
H       2.95274640      2.78006084      0.81248865
H       0.98196042      1.34489357      0.42811931
