29
CCOC(=O)NS(=O)(=O)c1ccc(C)cc1
C      -4.95900922      0.53933392     -1.40289334
C      -3.81416890      0.65344686     -0.41517838
O      -3.01969441     -0.53464797     -0.51267445
C      -1.95698421     -0.56249367      0.33132857
O      -1.65965064      0.33158587      1.10473284
N      -1.24468164     -1.73664935      0.17619245
S       0.09171576     -2.16686242      1.04155702
O      -0.17408162     -2.00487911      2.45296055
O       0.50190279     -3.45121134      0.51000067
C       1.30325911     -0.97365900      0.53519436
C       1.52392560      0.16438574      1.31348105
C       2.49564075      1.08752162      0.92373536
C       3.25026820      0.87754269     -0.23851446
C       4.31965283      1.85403671     -0.63269868
C       3.04004949     -0.28479816     -0.99301569
C       2.06834036     -1.21116454     -0.60992726
H      -4.57796873      0.42004958     -2.42254404
H      -5.56902110     -0.34371227     -1.18559720
H      -5.59651976      1.42706243     -1.36554222
H      -3.20213527      1.52909846     -0.65910554
H      -4.21174437      0.75117635      0.60130615
H      -1.55064686     -2.40799451     -0.51608969
H       0.94246839      0.34207848      2.21644774
H       2.66170673      1.97230657      1.53521997
H       5.26898967      1.57868836     -0.16319611
H       4.05310615      2.87041785     -0.32428220
H       4.45292114      1.86928368     -1.71953004
H       3.63853686     -0.47717721     -1.88129908
H       1.92382289     -2.11276560     -1.20062016
