19
CCOc1ccccc1
C       3.33179566     -0.37521782      0.21608202
C       1.98362057      0.30676879      0.06660888
O       0.97316657     -0.69756126      0.13192167
C      -0.32491828     -0.28229151      0.01624529
C      -1.27333020     -1.30635381      0.08706704
C      -2.63633593     -1.02339383     -0.01648220
C      -3.06002160      0.29140283     -0.19223238
C      -2.12038055      1.31849162     -0.26386114
C      -0.75487531      1.03371483     -0.15997053
H       3.38876722     -0.91202634      1.16885621
H       4.14496531      0.35474048      0.17268606
H       3.47896697     -1.11627658     -0.57660977
H       1.85609011      1.02872809      0.88148455
H       1.94821185      0.82011196     -0.90124269
H      -0.94563471     -2.33384621      0.22423713
H      -3.36330082     -1.82894217      0.04021312
H      -4.12028957      0.51576021     -0.27327913
H      -2.45018307      2.34518358     -0.40104618
H      -0.05631422      1.86100713     -0.22067796
