7
CNCl
C      -0.62541404     -0.07787955     -0.02229861
N       0.73872820      0.28336392     -0.37341582
Cl      1.90981631     -0.90938480      0.18900215
H      -0.90586040     -1.03794763     -0.46738092
H      -0.75559921     -0.13701662      1.06310143
H      -1.31637138      0.67897774     -0.40595090
H       0.95470053      1.19988694      0.01694268
