12
C1O[C@@H]1[C@H]1CO1
C       2.02569877      0.01650805     -0.05175425
O       1.40367137      0.77625391      0.99058898
C       0.58679574      0.45603677     -0.14788946
C      -0.58679576     -0.45603732      0.14788886
C      -2.02569863     -0.01650780      0.05175504
O      -1.40367229     -0.77625287     -0.99058911
H       2.23615782     -1.02762490      0.14126782
H       2.75708710      0.51988841     -0.67111951
H       0.38658830      1.26862127     -0.84156113
H      -0.38658805     -1.26862254      0.84155932
H      -2.75708728     -0.51988820      0.67111964
H      -2.23615709      1.02762520     -0.14126619
