33
CCCCn1cnc2c1c(=O)n(C)c(=O)n2C
C       4.30004630      0.37424237      1.27484912
C       3.35899835     -0.21270876      0.23406006
C       2.54510624      0.88067736     -0.46185305
C       1.64916847      0.33932437     -1.57772972
N       0.55989803     -0.49053805     -1.10531320
C       0.52487228     -1.86152003     -1.15107890
N      -0.60310219     -2.33747575     -0.66470384
C      -1.31202405     -1.23040349     -0.31021715
C      -0.63066433     -0.08001854     -0.57350428
C      -1.15933543      1.21260310     -0.30328752
O      -0.54898099      2.24802716     -0.55236053
N      -2.43511064      1.16939143      0.26732161
C      -3.08188973      2.42604365      0.59099943
C      -3.17108841     -0.00001002      0.54903900
O      -4.30065002      0.06512239      1.04343851
N      -2.56895856     -1.22039862      0.24431611
C      -3.25947673     -2.47068039      0.50308659
H       5.01068317      1.06822270      0.81475322
H       4.87075110     -0.42264504      1.76187781
H       3.74279538      0.91401852      2.04716181
H       2.69121057     -0.92733784      0.72741461
H       3.94477500     -0.76994260     -0.50608146
H       1.94465123      1.41649957      0.28269342
H       3.23422259      1.61243534     -0.90121834
H       2.23699689     -0.25168502     -2.29007220
H       1.20567968      1.16581003     -2.14393106
H       1.34184301     -2.45602028     -1.54071324
H      -3.34430407      2.42989031      1.65409205
H      -4.00444436      2.50966826      0.00713828
H      -2.44931336      3.29180208      0.38033257
H      -2.65795996     -3.07641856      1.18828687
H      -4.24249223     -2.30844480      0.95282127
H      -3.39190323     -3.00753085     -0.44161786
