50
CN(C)Cc1ccc(C(=O)OCCOCn2cnc3c(=O)[nH]c(N)nc32)cc1
C       6.72736445      1.70469146      1.16699123
N       5.50796340      0.90129623      1.26878589
C       4.86769193      1.13380081      2.56639556
C       4.59752807      1.22715301      0.15588593
C       3.43248960      0.26636172      0.02978944
C       3.65729896     -1.10762557     -0.14245424
C       2.58465156     -1.99313166     -0.27644128
C       1.26819799     -1.51751798     -0.24202522
C       0.16045098     -2.49945191     -0.39476138
O       0.32944950     -3.69632660     -0.56884814
O      -1.04069225     -1.87838804     -0.31383955
C      -2.19215820     -2.71985265     -0.47732951
C      -2.46067316     -3.02054788     -1.95571082
O      -2.53800368     -1.86005931     -2.79127892
C      -3.64257684     -1.00248667     -2.51275674
N      -3.17760211      0.16138642     -1.79006147
C      -2.09901823      0.94126732     -2.12679545
N      -1.92024592      1.93386474     -1.27659419
C      -2.93301294      1.78174762     -0.36363208
C      -3.25859220      2.55075314      0.81696909
O      -2.63329237      3.51749862      1.24128435
N      -4.39014149      2.06749621      1.46055957
C      -5.11198156      0.96306362      1.05450779
N      -6.18226046      0.63383728      1.82093226
N      -4.82424631      0.25146317     -0.00253340
C      -3.73317454      0.70273924     -0.66743244
C       1.03877308     -0.14634677     -0.07169120
C       2.11328830      0.73833469      0.05969503
H       7.24538322      1.50159727      0.22302297
H       7.42830696      1.44438488      1.96813158
H       6.52181561      2.77994396      1.22399655
H       3.99672404      0.48441912      2.70381564
H       5.55889232      0.89137208      3.38182151
H       4.54658607      2.17474830      2.68886330
H       5.14195302      1.17444649     -0.79695972
H       4.23448846      2.26000521      0.24458937
H       4.67610642     -1.49056084     -0.16424222
H       2.78301076     -3.05500135     -0.40663510
H      -3.03601391     -2.18281098     -0.03567144
H      -2.07803027     -3.64750587      0.09614448
H      -1.64196636     -3.62401582     -2.36025480
H      -3.37866740     -3.60884313     -2.06674767
H      -4.04701670     -0.64025575     -3.46332641
H      -4.43863837     -1.50861329     -1.95759566
H      -1.47874987      0.72671424     -2.98836818
H      -4.62877840      2.54109206      2.31500130
H      -6.78774456     -0.03873775      1.36017807
H      -6.70072116      1.40315561      2.22496086
H       0.02923963      0.25691982     -0.04299743
H       1.90634493      1.79966633      0.18466292
