49
CCCNC(=O)c1nnc2c(-c3cc(OC)ccc3OC)c(F)ccc2c1N
C       4.52203055      0.69392835     -4.01466657
C       5.45066168      0.20096591     -2.91406077
C       4.92259112     -1.05018794     -2.21537922
N       3.69488190     -0.80479237     -1.49208402
C       3.66862787     -0.25145843     -0.22564952
O       4.68246397      0.01442230      0.41466054
C       2.29909559     -0.00278955      0.33326006
N       1.28536570     -0.46499865     -0.43032757
N      -0.00323643     -0.32084857      0.00469696
C      -0.29820556      0.29733620      1.16494511
C      -1.63754981      0.45600025      1.56323960
C      -2.74580676     -0.08870791      0.75425348
C      -3.21859672      0.64247387     -0.35559365
C      -4.26561451      0.15822426     -1.13851831
O      -4.80630164      0.77375172     -2.23330894
C      -4.21417989      2.00171818     -2.63821831
C      -4.84902599     -1.06436300     -0.80976322
C      -4.39416209     -1.80578205      0.28435765
C      -3.34298042     -1.32812499      1.07090739
O      -2.82309496     -1.98505654      2.15882987
C      -3.39368697     -3.24166875      2.49827396
C      -1.92789701      1.13847636      2.75201645
F      -3.20126727      1.31407067      3.13786984
C      -0.92618400      1.66453319      3.54877800
C       0.39977745      1.50117938      3.16523484
C       0.74341708      0.80806683      1.98039906
C       2.09047957      0.61438803      1.57237948
N       3.15653378      1.18811991      2.31625693
H       3.55109121      0.99760727     -3.61107775
H       4.35507608     -0.08537132     -4.76505539
H       4.96179987      1.56062840     -4.51831169
H       5.60472218      1.00635066     -2.18659101
H       6.42802677     -0.02691078     -3.35498964
H       4.72242156     -1.84529565     -2.94107601
H       5.67498895     -1.41811027     -1.50905829
H       2.80217976     -0.96262117     -1.95225173
H      -2.74342692      1.59140914     -0.58420339
H      -3.16140582      1.86391494     -2.90635681
H      -4.32923471      2.76845671     -1.86499696
H      -4.74226886      2.34867115     -3.53162650
H      -5.66726815     -1.44785100     -1.41497959
H      -4.88369912     -2.75124362      0.49037312
H      -4.44948642     -3.13595730      2.76839939
H      -3.26089933     -3.96755460      1.68935105
H      -2.86320052     -3.62266567      3.37627124
H      -1.18424853      2.19832410      4.45809224
H       1.16838218      1.93738859      3.79912900
H       3.07353094      1.06968484      3.32035731
H       4.07478264      0.86226891      1.98173351
