17
CC(C)CO[N+](=O)[O-]
C      -1.87920910     -0.73104037     -0.57046592
C      -0.65769346      0.17777762     -0.69266397
C      -0.88065384      1.47508798      0.08807735
C       0.60591903     -0.55381082     -0.21438284
O       1.73860650      0.27675165     -0.45882573
N       2.95187915     -0.31917248     -0.03966709
O       2.88677658     -1.44244533      0.46234320
O       3.92987038      0.39690626     -0.24564328
H      -2.05544983     -1.02286217      0.47047385
H      -2.77868080     -0.22557431     -0.93757164
H      -1.74537698     -1.64381814     -1.16050731
H      -0.52511569      0.44847995     -1.74802984
H      -1.78363309      1.98707571     -0.26137988
H      -0.99691051      1.27816671      1.15927119
H      -0.03982139      2.16431491     -0.04062301
H       0.51977537     -0.77392005      0.85754843
H       0.70971767     -1.49191713     -0.77429732
