63
CCCCCCCCCCCC(=O)N(CCCC)CCCC
C       8.60285577      0.03711551     -1.09952373
C       7.82412160     -0.43137244      0.12026677
C       7.13379134      0.73756300      0.82333403
C       6.43084837      0.33794669      2.12424658
C       5.33011546     -0.71897153      1.99164296
C       4.18673213     -0.29540610      1.06758515
C       3.06342847     -1.33484634      1.06396917
C       1.92045758     -0.91571953      0.13646299
C       0.79669286     -1.95424928      0.13847134
C      -0.32301434     -1.64092591     -0.85781255
C      -1.09399306     -0.36186606     -0.52278977
C      -2.29061208     -0.15076679     -1.44032428
O      -2.50346354     -0.90714438     -2.38957546
N      -3.12155089      0.93604725     -1.16619569
C      -2.90319751      1.91438343     -0.09354424
C      -3.96455999      1.88141267      1.00946016
C      -3.95839494      0.57560540      1.80517109
C      -5.02672613      0.58081820      2.88738289
C      -4.26437529      1.15494393     -2.05859567
C      -5.43209560      0.20543574     -1.77427831
C      -6.59798625      0.46395471     -2.72813890
C      -7.76310944     -0.47240101     -2.45014390
H       9.38117390      0.75330498     -0.81739338
H       7.94037697      0.51738292     -1.82672151
H       9.08627445     -0.81354191     -1.59004101
H       7.08484268     -1.17279227     -0.20111019
H       8.50952829     -0.93163566      0.81400015
H       6.42042566      1.21383636      0.14097729
H       7.88267648      1.50246509      1.06520626
H       7.18208182     -0.03275539      2.83286071
H       6.00183043      1.24085354      2.57656299
H       4.92704310     -0.91418255      2.99350589
H       5.75805127     -1.66634021      1.64434117
H       4.55822077     -0.16770329      0.04466920
H       3.78969993      0.67330051      1.39402552
H       3.46232809     -2.30433549      0.74150727
H       2.67942746     -1.46531102      2.08304470
H       2.30287696     -0.78951773     -0.88355463
H       1.53412713      0.05647500      0.46238159
H       0.37615912     -2.04268974      1.14762391
H       1.21515631     -2.93601783     -0.11587942
H       0.09275222     -1.56986994     -1.87064666
H      -1.01860690     -2.48978903     -0.86801851
H      -1.44872585     -0.42201978      0.51069911
H      -0.43161758      0.50286371     -0.63194652
H      -2.89808612      2.90592331     -0.56244318
H      -1.91588446      1.79206822      0.35735132
H      -3.77169954      2.71574391      1.69552775
H      -4.95889887      2.05590622      0.58379990
H      -4.13138698     -0.27832439      1.14131772
H      -2.97753373      0.43147793      2.27239147
H      -4.86703501      1.40238115      3.59293426
H      -5.00209851     -0.35852639      3.44856191
H      -6.02506013      0.69017933      2.45173287
H      -3.92317203      1.01544731     -3.09190505
H      -4.58950926      2.19823847     -1.97184961
H      -5.10432675     -0.83628870     -1.87083306
H      -5.77325176      0.32703321     -0.74060720
H      -6.93854143      1.50103895     -2.62728619
H      -6.26795867      0.32937748     -3.76477890
H      -7.46414116     -1.51816065     -2.57400208
H      -8.13771460     -0.34033983     -1.43004583
H      -8.58576823     -0.26988886     -3.14303067
