44
NC(=O)c1ccc2c(c1)OCCc1cc(-c3nncn3-c3ccccc3Cl)sc1-2
N      -6.02903303      2.08224431      2.30489115
C      -5.04286562      1.40624302      2.96852590
O      -5.03120159      1.35885754      4.19193576
C      -3.97368819      0.77135295      2.15422331
C      -2.76371096      0.45684578      2.77049242
C      -1.72437424     -0.12792784      2.03411258
C      -1.85644402     -0.42837240      0.66194607
C      -3.11535785     -0.16393479      0.08411794
C      -4.14920459      0.45058681      0.80921963
O      -3.45336693     -0.44272597     -1.21684039
C      -3.20127548     -1.81057574     -1.54991612
C      -1.85876697     -1.91934460     -2.24505494
C      -0.68451843     -1.61190953     -1.35938548
C       0.65253823     -1.96479973     -1.75483722
C       1.61329008     -1.56422227     -0.85609519
C       3.02551384     -1.79177626     -0.97370195
N       3.51892822     -2.93546845     -1.41215194
N       4.87997259     -2.90098520     -1.27198237
C       5.19488279     -1.72438409     -0.78488169
N       4.07046289     -0.95122057     -0.61317466
C       4.05123777      0.43398960     -0.30261486
C       3.19869883      1.27248657     -1.04418184
C       3.17957508      2.64865728     -0.80999026
C       4.00899222      3.20256529      0.15969662
C       4.85484236      2.37941775      0.90273940
C       4.88238280      0.99691123      0.67945287
Cl      5.87420105      0.07067496      1.75133201
S       0.89896950     -0.82750010      0.49864883
C      -0.70939750     -0.97487169     -0.11998607
H      -6.67040485      2.60647943      2.88708183
H      -5.92930151      2.37953687      1.34517608
H      -2.61517243      0.67304841      3.82743498
H      -0.80432202     -0.34169074      2.57397485
H      -5.09650296      0.62997898      0.30955680
H      -3.98941672     -2.11106277     -2.24984867
H      -3.28445250     -2.47891109     -0.68151520
H      -1.82850683     -1.22472102     -3.09432248
H      -1.74840151     -2.93516781     -2.64382986
H       0.89543505     -2.48413018     -2.67642484
H       6.20225123     -1.37622207     -0.60887754
H       2.56258088      0.88400454     -1.83760594
H       2.52018519      3.28955007     -1.39181158
H       3.99257680      4.27435809      0.34421975
H       5.48216931      2.82413546      1.67285105
