37
O=C1OC2(c3ccc(O)cc3Oc3cc(O)ccc32)c2ccccc21
O      -2.24399574     -1.91007289     -2.91201487
C      -1.61613070     -1.48820961     -1.96217889
O      -0.90126054     -0.32687577     -1.91114186
C      -0.27577469     -0.11883423     -0.61447108
C      -0.82362446      1.16298307     -0.01574655
C      -2.18876925      1.50367556     -0.07890176
C      -2.66483811      2.66670792      0.53173997
C      -1.77888675      3.49091186      1.21490102
O      -2.20033411      4.63195172      1.83015801
C      -0.42889927      3.17491273      1.29014741
C       0.04683042      2.01901243      0.66814750
O       1.39644390      1.78735591      0.78068444
C       1.96933066      0.87547435     -0.07340490
C       3.36311748      0.92398948     -0.16950376
C       4.01991894      0.03978995     -1.01624915
O       5.37674080      0.05303626     -1.14657115
C       3.30764516     -0.89046147     -1.76120820
C       1.91648671     -0.94349865     -1.65635964
C       1.22754102     -0.05908778     -0.80545258
C      -0.70419424     -1.33218317      0.15138772
C      -0.43340052     -1.72258941      1.45579850
C      -0.97466391     -2.92784395      1.91501209
C      -1.77311174     -3.72330599      1.07572596
C      -2.03953976     -3.32172970     -0.23351338
C      -1.49031755     -2.12493580     -0.66005216
H      -2.89497515      0.86446704     -0.60546674
H      -3.72176773      2.90651766      0.46562897
H      -3.15260423      4.73985357      1.67103397
H       0.25245349      3.83145274      1.82338956
H       3.91170226      1.65643241      0.41384556
H       5.73736773      0.76765840     -0.59609198
H       3.83311789     -1.57506233     -2.42182433
H       1.37811282     -1.68303401     -2.24547638
H       0.18384287     -1.11216018      2.10969672
H      -0.77513160     -3.25487859      2.93383554
H      -2.18462776     -4.65805467      1.45070802
H      -2.65380435     -3.92336484     -0.89621159
