30
CC(C)(C)C(=O)OCn1cc(F)c(=O)[nH]c1=O
C      -2.39775618      0.02091095      1.49498858
C      -2.47480457      0.38332667      0.00593283
C      -2.13782671      1.86564563     -0.20229591
C      -3.90093590      0.11678208     -0.50084911
C      -1.48430991     -0.47771796     -0.78119904
O      -1.78488571     -1.23972448     -1.69040593
O      -0.21045507     -0.27795248     -0.34552296
C       0.74766729     -1.09272194     -1.01920663
N       2.06832355     -0.72140520     -0.52709208
C       2.61074819      0.49575977     -0.89880505
C       3.79904253      0.89711472     -0.44943898
F       4.34126105      2.07797542     -0.79751922
C       4.56372138      0.03357345      0.47024015
O       5.65978241      0.34818612      0.91859907
N       3.95198140     -1.15144380      0.78876914
C       2.72297937     -1.58010197      0.34709805
O       2.27621860     -2.65934059      0.72548853
H      -3.13875993      0.57912184      2.07796818
H      -2.58083461     -1.04865985      1.64975421
H      -1.41053716      0.24486164      1.91478235
H      -2.86374650      2.51230903      0.30305651
H      -1.14499004      2.11292121      0.19034449
H      -2.13835798      2.12364564     -1.26761273
H      -4.63620088      0.71882660      0.04472236
H      -3.99577639      0.35785549     -1.56603423
H      -4.17511958     -0.93759390     -0.37901291
H       0.54088599     -2.15037494     -0.82264241
H       0.72108414     -0.91058963     -2.10105759
H       2.03008400      1.12184408     -1.56872625
H       4.44151720     -1.76303361      1.42382187
