32
CC(C)c1cccc(C(C)CC=O)c1
C       2.96485206      1.18935585      1.14449883
C       2.85542998      0.28184881     -0.08339599
C       3.35442628     -1.12982011      0.23474258
C       1.44181892      0.26270194     -0.63882469
C       1.19841224      0.72951625     -1.93701266
C      -0.09183793      0.71901722     -2.46538123
C      -1.15816416      0.24404603     -1.70327350
C      -0.94742944     -0.22821656     -0.40087540
C      -2.09373344     -0.73253007      0.46242898
C      -2.79109355     -1.92985391     -0.19242830
C      -3.10839211      0.37348710      0.78158048
C      -2.49521402      1.42692529      1.66822421
O      -2.87533394      1.64012114      2.81601542
C       0.35865615     -0.21470782      0.11760806
H       2.61859338      2.20308724      0.91409346
H       2.36924299      0.81636656      1.98479740
H       4.00530447      1.25873262      1.47999808
H       3.52558262      0.69486861     -0.84911532
H       3.28721142     -1.77672476     -0.64707859
H       2.77491240     -1.59865410      1.03743227
H       4.40231498     -1.10475891      0.55289718
H       2.01502851      1.10406998     -2.55047428
H      -0.26544333      1.08105571     -3.47565108
H      -2.15384610      0.24584283     -2.14068817
H      -1.67695251     -1.09176255      1.41370889
H      -3.29890206     -1.65081368     -1.12202354
H      -3.54370615     -2.35250001      0.48211326
H      -2.07166813     -2.72198900     -0.42838657
H      -3.97110954     -0.04668963      1.31225801
H      -3.48647194      0.86762582     -0.11975682
H      -1.67863277      2.02178771      1.22446638
H       0.53614472     -0.58143560      1.12750264
