51
O=C([O-])C(O)C(O)C1OB(O)OC1CO.O=C([O-])C(O)C(O)C1OB(O)OC1CO.[Ca+2]
O       4.42788362      0.45741898      0.65560445
C       3.29327023     -0.02433512      0.79478235
O       3.02978961     -0.90928114      1.80992253
C       2.20598386      0.34234794     -0.12492484
O       2.47026341     -0.26482916     -1.34747679
C       0.84860460     -0.11533221      0.42663019
O       0.93254452     -1.49903092      0.57820994
C      -0.18866006      0.29382968     -0.56860223
O      -0.18076171      1.69135594     -0.63518883
B      -1.50197966      2.12950372     -0.18949855
O      -2.39486900      3.03591602     -0.92158705
O      -2.02852870      1.00624165      0.58633520
C      -1.58183248     -0.05520805     -0.21510376
C      -1.75674861     -1.37836852      0.46383160
O      -3.13758371     -1.52394562      0.72021345
O       1.77335755     -1.36863160      1.42504313
C       2.39824418     -0.35176451      1.13307273
O       3.41057086      0.11430393      1.94668626
C       2.08976685      0.41402149     -0.10357577
O       3.19856896      0.08950804     -0.93687463
C       0.90514640     -0.13357598     -0.86576462
O       1.04036462      0.49082915     -2.16124321
C      -0.43124548      0.25237851     -0.42500897
O      -0.59921137      1.65374637     -0.34724362
B      -1.78313965      1.83905422      0.48853246
O      -2.61855108      3.01392804      0.50637204
O      -2.20397429      0.53264759      0.99420026
C      -1.01989564     -0.27617808      0.82205495
C      -1.54375130     -1.68703336      0.71353236
O      -2.39235154     -1.73728301     -0.38365790
Ca      0.00000000      0.00000000      0.00000000
H       2.19165660      1.45054173     -0.29988585
H       2.69684599      0.39208050     -2.05205463
H       0.66893073      0.33813548      1.41362252
H       1.14294852     -1.86860047     -0.31583499
H       0.09508283     -0.13917551     -1.56244109
H      -2.93200827      2.57840047     -1.60047675
H      -2.20213244     -0.01853967     -1.13441071
H      -1.39451785     -2.16088917     -0.22859180
H      -1.24849237     -1.47074672      1.41697315
H      -3.45568964     -2.28748984      0.16808960
H       2.06819540      1.48903620      0.00498518
H       3.04684019     -0.86356193     -1.18275175
H       1.07349326     -1.20939121     -1.02278286
H       1.16752417      1.46094509     -1.92117412
H      -1.14545512     -0.03278323     -1.26107924
H      -2.92256504      3.17730978     -0.42824548
H      -0.48863949     -0.07547990      1.76041928
H      -0.73914463     -2.43534308      0.62734287
H      -2.18912116     -1.87993247      1.61911139
H      -2.09502663     -2.47675002     -1.00195075
