28
Cc1c(Cl)ccc(Cc2ccc(Cl)cc2Cl)c1Cl
C       3.79133729      1.57960931      0.79385097
C       2.84323975      0.50987528      0.31039674
C       3.10399289     -0.85567121      0.51599753
Cl      4.51841476     -1.42257129      1.33469872
C       2.21923713     -1.83044945      0.05294931
C       1.06163309     -1.46415381     -0.62765730
C       0.76397084     -0.11307362     -0.86587927
C      -0.52044120      0.21097149     -1.61003421
C      -1.77170204      0.04897168     -0.76673252
C      -2.05320224      1.01992316      0.21372397
C      -3.18453492      0.91709328      1.02577843
C      -4.05156076     -0.15827525      0.86755589
Cl     -5.44545671     -0.28631110      1.86745188
C      -3.79923515     -1.12991689     -0.09538723
C      -2.66591020     -1.02751188     -0.90906108
Cl     -2.43247011     -2.27424745     -2.08358891
C       1.66750810      0.86645693     -0.39710222
Cl      1.34825423      2.55002384     -0.70341695
H       4.27638496      2.06321604     -0.06048322
H       3.25331483      2.33041462      1.38253835
H       4.58112766      1.20145356      1.44670746
H       2.42743133     -2.88555038      0.21815792
H       0.39290435     -2.24843950     -0.97724464
H      -0.51331722      1.22733449     -2.01906013
H      -0.55763237     -0.41292615     -2.51069898
H      -1.38913687      1.87094199      0.35329789
H      -3.38020018      1.67858800      1.77672492
H      -4.48395126     -1.96577567     -0.21356197
