13
O=S(=O)(O)CS(=O)(=O)O
O       1.87368077      2.15756048     -0.40343498
S       1.46592016      0.79342101     -0.14446303
O       2.13918890     -0.02272091      0.83710840
O       1.51565828     -0.00339400     -1.55164964
C      -0.27125330      0.79296632      0.12258387
S      -0.78492908     -0.83044379      0.53888486
O      -0.26637057     -1.78192626     -0.41970606
O      -0.71719873     -1.04116341      1.96581473
O      -2.36148666     -0.65315583      0.22572910
H       1.54625061     -0.97800918     -1.39228537
H      -0.76067225      1.12067899     -0.79678390
H      -0.50989781      1.46923352      0.94521057
H      -2.86889031     -1.02304693      0.98304129
