21
NNC(=O)c1ccc2c(c1)OCO2
N       4.01740973     -0.02221693      1.44648422
N       2.62668882     -0.05058609      1.19583005
C       2.18271495     -0.05770445     -0.12203852
O       2.94733590     -0.09908280     -1.08271748
C       0.71076638      0.02678971     -0.33001692
C       0.24354194      0.54954792     -1.55791502
C      -1.12681894      0.65367216     -1.81804343
C      -1.99582949      0.22134201     -0.84094487
C      -1.54543909     -0.30041824      0.34952815
C      -0.20122822     -0.41724594      0.63828081
O      -2.56449783     -0.67711093      1.16810881
C      -3.70807550     -0.33377185      0.35630378
O      -3.35265134      0.24139562     -0.91810055
H       4.36930856     -0.97353793      1.29699094
H       4.44632327      0.50199760      0.67129594
H       2.00025450      0.20585990      1.95533500
H       0.95635447      0.87792329     -2.31350832
H      -1.49231896      1.05605522     -2.75630529
H       0.10873857     -0.86458475      1.57479807
H      -4.32474756      0.38617330      0.90653582
H      -4.29783016     -1.24073367      0.18009883
