43
CCC(C)C(C)C(C)CCc1ccc(O)cc1
C      -2.97459843     -0.21518761      2.53776335
C      -3.43405240     -0.88805950      1.25108348
C      -3.33253319     -0.01273916     -0.02019117
C      -4.34547886      1.14164275      0.07119260
C      -1.88790450      0.50287287     -0.34244972
C      -1.87820067      1.31065647     -1.65374838
C      -0.80082769     -0.62610248     -0.34782087
C      -1.02289561     -1.66185985     -1.45686377
C       0.62850535     -0.03345844     -0.41895632
C       1.71962364     -1.04420081     -0.04168715
C       3.08468631     -0.39991322     -0.01341242
C       3.85378641     -0.31612060     -1.18243730
C       5.10834083      0.29463971     -1.15960063
C       5.59398736      0.82619146      0.02847879
O       6.82413244      1.41429798      0.00584734
C       4.84418202      0.75936523      1.19813065
C       3.58844588      0.14797322      1.17509089
H      -3.10221000     -0.90168523      3.38129332
H      -3.55979544      0.68358394      2.75229941
H      -1.91753996      0.06142073      2.49578019
H      -4.47762269     -1.20276095      1.38194637
H      -2.87065300     -1.81726130      1.11175271
H      -3.66453856     -0.64190177     -0.85652449
H      -4.00363615      1.92392061      0.75637466
H      -4.51481728      1.59865711     -0.90866170
H      -5.31957118      0.78339349      0.42177580
H      -1.61085229      1.20693370      0.45434790
H      -2.27721435      0.72490159     -2.48793290
H      -0.87235485      1.64467527     -1.92140319
H      -2.48165928      2.21907821     -1.56235957
H      -0.86197506     -1.15379634      0.61043864
H      -2.03303893     -2.07909443     -1.42237015
H      -0.86546779     -1.22909917     -2.44981490
H      -0.33400574     -2.50554097     -1.35094547
H       0.69282835      0.82427450      0.26339357
H       0.83194799      0.35123425     -1.42562782
H       1.50562096     -1.48315571      0.94086449
H       1.73951404     -1.88021623     -0.75012557
H       3.47969001     -0.72529895     -2.11796114
H       5.70335557      0.35663711     -2.06604002
H       7.02777608      1.73502671      0.89935131
H       5.21466984      1.17486225      2.12950685
H       3.00235082      0.10182064      2.09022233
