34
CNC(=O)C(C)SCCSP(=O)(OC)OC
C       4.85779933      1.92565298     -0.24324538
N       4.23633194      0.64681780     -0.01496425
C       3.42514688      0.07317757     -0.97461519
O       3.27934734      0.54666799     -2.09889162
C       2.73089347     -1.22119611     -0.54587306
C       3.74862316     -2.32983077     -0.30663266
S       1.75215573     -0.94495804      0.98736908
C       0.44421005      0.12943208      0.29203133
C      -0.57210216      0.46421582      1.38065665
S      -1.88402810      1.54828683      0.74645028
P      -3.22562274      0.21922747     -0.13737067
O      -2.52485818     -0.65434027     -1.13712299
O      -4.47730394      1.00319574     -0.79475170
C      -5.20959510      1.90755581      0.00565745
O      -3.94556965     -0.65671024      1.01791511
C      -4.69126751     -1.77965607      0.58955511
H       5.29904803      1.95800741     -1.24302784
H       5.63223119      2.07573013      0.51224644
H       4.09723821      2.70613733     -0.15593543
H       4.06902314      0.35840813      0.94337468
H       2.04594660     -1.53095858     -1.34268541
H       4.35625540     -2.48711752     -1.20512774
H       3.25367248     -3.27878532     -0.07263599
H       4.44023763     -2.09318066      0.50991900
H       0.90788567      1.04474633     -0.08990552
H      -0.02611619     -0.40267063     -0.53864834
H      -1.03605633     -0.44104038      1.78651674
H      -0.08556999      0.99238724      2.20792372
H      -6.15817506      2.12383380     -0.49252998
H      -4.65362520      2.84177575      0.11646238
H      -5.42182836      1.48160610      0.98968118
H      -5.42170309     -1.48869132     -0.17013089
H      -4.01949965     -2.54316678      0.18861579
H      -5.22312503     -2.19455964      1.44939534
