29
CC[Si](CC)(CC)CC
C      -0.86926891     -2.72760040     -0.48933563
C      -0.58820399     -1.70779520      0.60543575
Si     -0.00000482      0.00000354     -0.00000584
C       0.38476552      1.10161865      1.50581747
C      -0.79983533      1.40551125      2.41240227
C      -1.37050688      0.79819028     -1.05534191
C      -1.07338298      2.20470650     -1.55629453
C       1.57392277     -0.19200493     -1.05593975
C       2.74250512     -0.88262357     -0.36674744
H      -1.20221244     -3.67197723     -0.04646143
H      -1.65484564     -2.38019180     -1.16874256
H       0.02627501     -2.93397689     -1.08498473
H       0.17456900     -2.10887172      1.28219944
H      -1.49797658     -1.56138434      1.19835248
H       0.80604091      2.04387083      1.13787344
H       1.16679988      0.60880635      2.09423245
H      -0.48159999      2.03949504      3.24644525
H      -1.59274587      1.93429290      1.87289158
H      -1.22894840      0.48940703      2.83196414
H      -2.29006365      0.81620552     -0.45970349
H      -1.55822623      0.14567460     -1.91537565
H      -0.91647140      2.90154340     -0.72612274
H      -1.91353114      2.57662095     -2.15183425
H      -0.17921359      2.22461246     -2.18834038
H       1.30938353     -0.75120778     -1.96037674
H       1.88939404      0.80693144     -1.37730741
H       3.06311837     -0.33380011      0.52511437
H       2.48292986     -1.90190231     -0.06165730
H       3.59733383     -0.94415445     -1.04815687
