24
Oc1ccc2c(c1)Sc1ccccc1N2
O       4.94555278     -0.48649556      0.07749779
C       3.63158411     -0.12419759      0.04877310
C       3.33628441      1.22956868     -0.00353813
C       2.00382138      1.64279239     -0.03358938
C       0.95757047      0.70581533     -0.02680746
C       1.27279931     -0.66299104      0.04653804
C       2.61526079     -1.07295698      0.07674101
S       0.02514095     -1.94031418      0.09784095
C      -1.49875654     -1.01488078      0.00938987
C      -2.69847749     -1.74332275      0.00524877
C      -3.92914019     -1.08916822     -0.05217694
C      -3.97114384      0.29980799     -0.09971351
C      -2.78245772      1.03211564     -0.09625757
C      -1.53477201      0.38797440     -0.05977482
N      -0.36851716      1.17215395     -0.01557699
H       5.00156640     -1.45563834      0.11925411
H       4.13831073      1.96214412     -0.01533407
H       1.78815030      2.70756763     -0.06064034
H       2.85358873     -2.13128327      0.12566402
H      -2.68077236     -2.83000280      0.05102995
H      -4.85120185     -1.66463405     -0.05267771
H      -4.92749841      0.81527940     -0.13398854
H      -2.83760003      2.11740511     -0.12037835
H      -0.48929275      2.14326091     -0.27131718
