15
CSc1ccccn1
C       2.89550035      0.26819074      0.15000509
S       1.87309145     -1.18850657      0.48692178
C       0.24508469     -0.51650058      0.19350371
C      -0.85791358     -1.34888442      0.35192674
C      -2.13047837     -0.83038532      0.12445381
C      -2.26374226      0.49931545     -0.25318006
C      -1.11289257      1.25679163     -0.38767803
N       0.13302085      0.77973408     -0.17345294
H       2.76523961      0.60464168     -0.88233961
H       3.94679435      0.00313600      0.29262756
H       2.65213323      1.08207774      0.83867284
H      -0.73623452     -2.38581999      0.64758266
H      -3.00739668     -1.46056072      0.24164001
H      -3.23912638      0.93510572     -0.43817733
H      -1.16308016      2.30166454     -0.68083739
