33
CN1C(=O)CN=C(c2ccccc2)c2cc(Cl)ccc21
C       3.46129636     -0.89956468      1.16907923
N       2.35301812     -0.89161259      0.22333745
C       2.04545019     -2.11277461     -0.38991744
O       2.61991144     -3.16387293     -0.09008566
C       1.02410200     -2.08757369     -1.51869894
N      -0.30062352     -1.82898850     -0.96467059
C      -0.54433100     -0.64773000     -0.50623602
C      -1.88839503     -0.41718283      0.11491653
C      -3.00252467     -1.08293914     -0.41020212
C      -4.26537505     -0.88551158      0.15034713
C      -4.41782492     -0.03198403      1.24246651
C      -3.30820306      0.61863142      1.78194389
C      -2.04251985      0.42397881      1.22454746
C       0.42333144      0.48689929     -0.56624603
C      -0.07644083      1.72886854     -1.00137253
C       0.73517568      2.85643667     -0.97464060
Cl      0.11411980      4.37326536     -1.49191039
C       2.04320580      2.76284720     -0.51945857
C       2.55079231      1.52496231     -0.11089946
C       1.76442029      0.35710453     -0.15167652
H       3.53646251     -1.86681049      1.67593580
H       4.39529357     -0.72238722      0.62665454
H       3.31377730     -0.13693220      1.94039220
H       1.01517828     -3.07689544     -1.98980737
H       1.31314199     -1.37693239     -2.30116685
H      -2.88919990     -1.75802553     -1.25569423
H      -5.12777381     -1.40364983     -0.26148275
H      -5.40165000      0.11676570      1.68100890
H      -3.42854076      1.27025262      2.64395857
H      -1.18838457      0.91897312      1.67789679
H      -1.10256577      1.81836971     -1.35216981
H       2.68243904      3.64231776     -0.49345302
H       3.59323663      1.49169463      0.19730387
