11
O=[N+]([O-])C(Br)([N+](=O)[O-])[N+](=O)[O-]
O      -0.73286925     -1.86224989     -0.79404279
N      -1.00701518     -0.97452324      0.02946938
O      -2.10618049     -0.90341838      0.60731321
C       0.00829983      0.05942226      0.34445284
Br      0.05450204      0.39021103      2.26194062
N       1.33357344     -0.41342331     -0.12372389
O       1.79865564      0.03764076     -1.18279265
O       1.92730939     -1.25708858      0.57113589
N      -0.33798725      1.30611727     -0.38008762
O       0.20698578      2.36178087     -0.01170942
O      -1.14527396      1.25553122     -1.32195558
