71
C=C(C)C(=O)OCCOC(=O)NCCC(C)CC(C)(C)CNC(=O)OCCOC(=O)C(=C)C
C      10.32302282      2.08881001      0.06106469
C       9.03979316      1.94295293      0.43396202
C       8.21486198      3.09302333      0.92912131
C       8.32908890      0.62993511      0.38843621
O       7.16224567      0.49932772      0.72867837
O       9.14236271     -0.35425664     -0.06960085
C       8.56534327     -1.67129086     -0.17027256
C       7.96558474     -1.88121913     -1.56068697
O       6.76286042     -1.11439314     -1.72824960
C       5.65612664     -1.65632849     -1.16229112
O       5.60453043     -2.75161907     -0.62375454
N       4.62823212     -0.76739918     -1.26431041
C       3.42837754     -0.93485838     -0.47644301
C       2.31427974     -0.01533931     -0.97310670
C       1.00476363     -0.05877755     -0.14713275
C       1.25798453      0.41916799      1.28199890
C       0.34610838     -1.45717450     -0.23237245
C      -1.10323149     -1.66114642      0.31786845
C      -1.10692998     -1.77561516      1.85493467
C      -1.60655705     -3.01415035     -0.24408261
C      -2.03807894     -0.52239658     -0.15399686
N      -3.42818028     -0.72095232      0.19491716
C      -4.42779913     -0.04502338     -0.43736505
O      -4.30104588      0.64450627     -1.43685537
O      -5.58701991     -0.25064899      0.23302577
C      -6.71649341      0.42581564     -0.33311293
C      -7.96781481      0.01539720      0.43449943
O      -9.14797765      0.59077548     -0.14366327
C      -9.41634091      1.86643724      0.23280136
O      -8.73846075      2.53661692      0.99678220
C     -10.66400773      2.34276428     -0.42941213
C     -11.08067263      3.59194249     -0.16116603
C     -11.39805319      1.42798165     -1.35926926
H      10.92373804      1.25843699     -0.29701408
H      10.81447965      3.05580632      0.10544312
H       7.34469673      3.24793795      0.28233489
H       8.78495759      4.02808982      0.94550465
H       7.86309774      2.90308500      1.94860651
H       9.38848883     -2.37773670     -0.02194998
H       7.83955773     -1.83918191      0.63268207
H       8.66561666     -1.53077297     -2.32661726
H       7.77125494     -2.94269829     -1.75303336
H       4.95021684      0.16840642     -1.47177249
H       3.12648326     -1.98569816     -0.52926586
H       3.69427402     -0.71399349      0.56239794
H       2.68451957      1.01874711     -0.98953525
H       2.08684997     -0.26121017     -2.01888368
H       0.33725486      0.66905859     -0.62457555
H       1.69637178     -0.36899590      1.90204861
H       1.93725815      1.27867437      1.29527882
H       0.33012576      0.75445065      1.75177517
H       1.00158132     -2.19455394      0.24925649
H       0.33254906     -1.72948893     -1.29779285
H      -0.31479059     -2.44710632      2.20441666
H      -2.05599119     -2.18121370      2.22382282
H      -0.97179392     -0.80888134      2.34391828
H      -1.67859635     -2.98586659     -1.33737340
H      -2.59646279     -3.27564712      0.14582545
H      -0.92458402     -3.82911181      0.02534191
H      -1.96879971     -0.40336180     -1.24241986
H      -1.74692808      0.43389294      0.29499568
H      -3.67857404     -1.06532185      1.11077343
H      -6.83269970      0.15586685     -1.39005920
H      -6.56648290      1.50959484     -0.26989537
H      -7.88394528      0.26159489      1.50063031
H      -8.08326259     -1.07378066      0.39193830
H     -10.53382365      4.24350727      0.51624564
H     -11.97983044      3.99932404     -0.61168949
H     -12.29022164      1.90503470     -1.77877874
H     -10.75816646      1.13555740     -2.19813435
H     -11.72532208      0.52469069     -0.83420377
