43
CN(C(=O)CNC(=O)CN)c1ccc(Cl)cc1C(=O)c1ccccc1Cl
C       2.09622196     -1.47219834     -2.35234071
N       0.87215906     -0.79143989     -1.95090634
C       0.76047565      0.60422420     -1.89657994
O      -0.32951274      1.17246159     -1.77131177
C       2.05965196      1.42030543     -1.95611706
N       2.67934637      1.45343426     -0.64995648
C       2.36272015      2.42861621      0.27192418
O       1.79508366      3.47920651     -0.00952167
C       2.82854230      2.09410704      1.69564692
N       3.11178629      0.64851351      1.83991524
C      -0.26090128     -1.59640076     -1.61761707
C      -0.67907916     -2.57538224     -2.53343944
C      -1.82450024     -3.33684578     -2.29032668
C      -2.55572079     -3.13537202     -1.12336736
Cl     -3.96157754     -4.07955129     -0.82481098
C      -2.14861530     -2.18959879     -0.18656049
C      -1.00116500     -1.41592464     -0.42681637
C      -0.50259072     -0.54883121      0.67928030
O       0.69586648     -0.52768988      0.94797108
C      -1.44999555      0.25764212      1.48547743
C      -2.35243145      1.10203463      0.82244543
C      -3.24951609      1.88147928      1.55282567
C      -3.25195242      1.82230001      2.94415390
C      -2.35481993      0.98475322      3.60823717
C      -1.44983183      0.20255927      2.88423050
Cl     -0.41597132     -0.85037478      3.78457935
H       1.98443915     -2.56159005     -2.35245746
H       2.89230011     -1.21622173     -1.64569256
H       2.38110089     -1.13663473     -3.35783088
H       1.82312023      2.43220560     -2.29924818
H       2.77021235      0.98913383     -2.66304666
H       2.96932338      0.58312403     -0.20562082
H       3.73644441      2.66694443      1.90370343
H       2.04059171      2.38139691      2.39834391
H       2.21971676      0.14569749      1.68240083
H       3.32405383      0.46707220      2.82028275
H      -0.14795075     -2.72241032     -3.47111845
H      -2.14616712     -4.07628269     -3.02037228
H      -2.70858828     -2.08613611      0.73950688
H      -2.35270488      1.18009010     -0.26289407
H      -3.93993193      2.54363235      1.03405316
H      -3.95008351      2.43351763      3.51268482
H      -2.36954888      0.94443344      4.69470973
