42
CN1CCN(C2=Nc3cc(Cl)ccc3Nc3ccccc32)CC1
C       5.45120014      0.44483287     -0.24501855
N       4.07073811      0.66935488      0.17582415
C       3.42105447     -0.60379294      0.55106155
C       1.93920228     -0.42108017      0.94322393
N       1.18232404      0.22608083     -0.15467488
C      -0.22170429      0.17118258     -0.09318693
N      -0.87050227      1.29959438     -0.03474220
C      -2.25705635      1.46218575      0.05753255
C      -2.76176639      2.63222027     -0.53031229
C      -4.09964541      2.98789446     -0.39049960
Cl     -4.68791050      4.42779623     -1.12603180
C      -4.96018212      2.19321044      0.35485478
C      -4.47435253      1.02885557      0.95060535
C      -3.12720918      0.64261870      0.80183684
N      -2.72359753     -0.58970112      1.36891803
C      -1.96419699     -1.53190365      0.64437665
C      -2.38318487     -2.87679242      0.65895434
C      -1.73750510     -3.84897080     -0.10877424
C      -0.65895165     -3.49434907     -0.90890632
C      -0.21549143     -2.17322664     -0.91745678
C      -0.85023134     -1.19148885     -0.13131353
C       1.80669286      1.51538420     -0.53156102
C       3.29153200      1.31452959     -0.90364060
H       6.03168745     -0.00356608      0.56878308
H       5.93630577      1.39577074     -0.49133911
H       5.51877941     -0.21289311     -1.11909565
H       3.48124051     -1.32016448     -0.27954279
H       3.94996144     -1.04454953      1.40454844
H       1.52477939     -1.40545189      1.18491253
H       1.86218327      0.19331390      1.84951265
H      -2.08128399      3.27404527     -1.08385201
H      -6.00405052      2.46902403      0.47445551
H      -5.16364602      0.41097395      1.52021441
H      -3.46000254     -1.02036042      1.91527624
H      -3.24173271     -3.17647072      1.25516221
H      -2.08833011     -4.87769206     -0.09076875
H      -0.15826354     -4.24168147     -1.51861437
H       0.63859333     -1.90356451     -1.53484056
H       1.29213856      1.93962321     -1.40224182
H       1.72061303      2.23072411      0.29634348
H       3.34695965      0.71214969     -1.82065874
H       3.72481167      2.29633430     -1.12905247
