43
O=C([O-])c1cc2ccccc2c(N=Nc2ccc3ccccc3c2S(=O)(=O)[O-])c1[O-].[H+].[Mn+2]
O       4.38958146      1.13436198     -4.13336221
C       4.96109012      1.13359642     -3.01317252
O       6.28933912      1.54724619     -2.88979836
C       4.27016670      0.70622407     -1.81051224
C       4.91282362      0.71191896     -0.58989618
C       4.21021564      0.29352580      0.53635729
C       4.82304906      0.28519749      1.78250852
C       4.12431473     -0.12764666      2.88323242
C       2.82515167     -0.52828890      2.73888285
C       2.19643720     -0.52757120      1.50717458
C       2.89997313     -0.11097758      0.39343960
C       2.25722691     -0.11528159     -0.83565950
N       0.90220192     -0.54742047     -0.90109155
N      -0.04815659      0.14662557     -0.40232947
C      -1.38419845     -0.31207898     -0.48466404
C      -1.73994394     -1.47594454     -1.12324263
C      -3.04525209     -1.88364695     -1.17878980
C      -4.06249248     -1.13741081     -0.59142193
C      -5.37903261     -1.58040569     -0.65786096
C      -6.33845990     -0.80505907     -0.05214271
C      -5.99814031      0.36358862      0.59321180
C      -4.69841375      0.79304916      0.65391382
C      -3.68976339      0.03291854      0.04880289
C      -2.37958603      0.47069989      0.12044504
S      -1.92199264      1.95881275      0.93868285
O      -2.77261748      3.11651298      0.59441652
O      -0.52689146      2.31197433      0.39662480
O      -1.68200741      1.72488512      2.57901043
C       2.95357116      0.29801770     -1.94372285
O       2.31432794      0.29606536     -3.18001374
H       0.00000000      0.00000000      0.00000000
Mn      0.00000000      0.00000000      0.00000000
H       5.94135603      1.03161875     -0.49063412
H       5.84953199      0.59933392      1.91098205
H       4.54912417     -0.15653192      3.88506692
H       2.26841398     -0.85729021      3.61627933
H       1.18552002     -0.83857497      1.39040599
H      -0.97784995     -2.06608715     -1.58126280
H      -3.35573693     -2.80280631     -1.67934712
H      -5.57421054     -2.50297565     -1.17813800
H      -7.38561262     -1.13310055     -0.09073805
H      -6.76313527      0.98504629      1.07848970
H      -4.39992277      1.69851955      1.15987337
