30
c1ccc(CNCc2ccccc2)cc1
C       4.73226346      0.17059416      0.98952123
C       4.29892609     -1.14480442      0.83259670
C       3.15746162     -1.42085504      0.07697584
C       2.43935049     -0.38198455     -0.53217481
C       1.20481952     -0.67200447     -1.35270754
N       0.00916606     -0.14336570     -0.70251918
C      -1.19430823     -0.47842885     -1.45827909
C      -2.43335788      0.01117572     -0.74659386
C      -2.67389080      1.38634087     -0.60720635
C      -3.81740302      1.84493142      0.04836974
C      -4.73223023      0.93424896      0.57305479
C      -4.50294215     -0.43461390      0.44529913
C      -3.35883279     -0.89507912     -0.20975268
C       2.88373717      0.93791764     -0.36263643
C       4.02426829      1.21221691      0.39344201
H       5.61928633      0.38459314      1.57960113
H       4.84942714     -1.95650159      1.30081404
H       2.83280609     -2.45283492     -0.03196095
H       1.11115828     -1.75492241     -1.50253207
H       1.33521606     -0.22077441     -2.34430246
H      -0.06387248     -0.53753381      0.23454602
H      -1.26243018     -1.56340813     -1.60697736
H      -1.16377671     -0.01914361     -2.45426991
H      -1.95859112      2.10388703     -1.00425197
H      -3.99043320      2.91262441      0.15269686
H      -5.62164215      1.29158166      1.08497098
H      -5.21496291     -1.14444221      0.85797455
H      -3.19524137     -1.96645341     -0.29719503
H       2.32988498      1.75786760     -0.81551763
H       4.35614364      2.23917104      0.51999450
