18
CCN(C=O)CC
C      -2.20370540      0.63032547     -0.27770312
C      -0.87270970      0.75917890      0.44447227
N      -0.00929824     -0.38639626      0.19128827
C       0.00883176     -1.46724202      1.05123891
O       0.71777737     -2.45898118      0.94180590
C       0.86489922     -0.37222022     -0.97591136
C       2.20479402      0.27679929     -0.66892085
H      -2.06186477      0.57383851     -1.36171000
H      -2.83963836      1.49401258     -0.06078162
H      -2.73455810     -0.27439775      0.03660076
H      -0.35239495      1.67257501      0.13763985
H      -1.05859780      0.83057991      1.52219715
H      -0.70412166     -1.36016537      1.88579751
H       1.03515223     -1.40221260     -1.30906932
H       0.35932224      0.15620070     -1.79112740
H       2.07675806      1.31655517     -0.35124098
H       2.72490036     -0.25547483      0.13428463
H       2.84445371      0.26702468     -1.55671653
