36
C=C(C)C(=O)OCCC(F)(F)C(F)(F)C(F)(F)C(F)(F)C(F)(F)C(F)(F)F
C       5.65076721      0.32002436      0.32907969
C       4.91645852     -0.80488091      0.28254021
C       5.40083114     -2.10216929      0.85766436
C       3.56369317     -0.85795949     -0.34436405
O       2.88946312     -1.87622337     -0.39342812
O       3.18830414      0.35385431     -0.82771344
C       1.91096051      0.39556432     -1.48611307
C       0.79710772      0.56103056     -0.45961983
C      -0.55459711      0.69455140     -1.14246578
F      -0.51034479      1.76826062     -1.97502727
F      -0.75908968     -0.39219973     -1.93114360
C      -1.69428697      0.84240028     -0.13938244
F      -1.69193306     -0.22537071      0.70578539
F      -1.47563527      1.93241930      0.64649741
C      -3.04296097      0.94860755     -0.82545039
F      -3.31562270     -0.18052518     -1.53212792
F      -3.00175206      1.94887070     -1.75844578
C      -4.19552077      1.24716114      0.12217528
F      -4.00261596      2.49512441      0.65839992
F      -5.33861944      1.36906252     -0.62661954
C      -4.47025676      0.28205114      1.25795364
F      -3.44203161      0.29389424      2.15140948
F      -5.55183636      0.74365602      1.96518329
C      -4.75536764     -1.12883850      0.77956151
F      -3.67114973     -1.69448773      0.20361176
F      -5.75816825     -1.17105924     -0.12459329
F      -5.10981532     -1.93764392      1.80760375
H       6.63349664      0.33038919      0.79066512
H       5.30416069      1.26049761     -0.08837642
H       6.39679681     -2.00569646      1.30316490
H       5.46055847     -2.86924118      0.07841488
H       4.72097978     -2.45221947      1.64154846
H       1.93713412      1.25776684     -2.16119093
H       1.76797494     -0.49462419     -2.11045881
H       0.79557666     -0.29845781      0.22007509
H       1.00734080      1.44641067      0.15229964
