12
O=c1n(Cl)c(=O)n(Cl)c(=O)n1Cl
O       2.29288431      1.34523344      0.00093972
C       1.22910085      0.72111252      0.00050394
N      -0.00918069      1.35077819     -0.03342244
Cl     -0.02107684      3.10109182     -0.07673255
C      -1.23878297      0.70344225     -0.03575135
O      -2.31094628      1.31226960     -0.06669439
N      -1.16544670     -0.68376666     -0.00047708
Cl     -2.67561118     -1.56977903     -0.00109722
C       0.00968211     -1.42455474      0.03524863
O       0.01806195     -2.65750301      0.06575577
N       1.17462737     -0.66701151      0.03390062
Cl      2.69668807     -1.53131287      0.07782635
