36
CN1/C(=C(/O)Nc2ccccn2)C(=O)c2ccccc2S1(=O)=O
C       0.26236421      0.40738285     -2.12145000
N       0.44253391     -0.53377165     -0.98586568
C       0.39227302      0.05733033      0.33098540
C      -0.84266923      0.17273089      0.87598392
O      -1.02616369      0.77490991      2.10864566
N      -1.96834506     -0.30661163      0.24594629
C      -3.32369740     -0.31500916      0.54247636
C      -3.90305534      0.30646250      1.64166856
C      -5.28403591      0.23405126      1.83097276
C      -6.06110240     -0.45675726      0.91513590
C      -5.41758165     -1.04377081     -0.15618157
N      -4.08225424     -0.98253652     -0.35928576
C       1.62443282      0.56594063      1.00820333
O       1.56238823      1.13908187      2.09366429
C       2.92255972      0.41805901      0.30959626
C       3.99100032      1.24429696      0.68051687
C       5.21637254      1.14912596      0.01469908
C       5.38457116      0.22844462     -1.02107222
C       4.33216193     -0.60856050     -1.38872951
C       3.11379257     -0.51094356     -0.71063004
S       1.78208874     -1.58154198     -1.12755997
O       1.71850686     -2.57391582     -0.07857538
O       1.92784554     -1.94348921     -2.52087712
H       1.13659182      1.05247381     -2.24948063
H      -0.61087902      1.04687563     -1.95591298
H       0.07871790     -0.15002501     -3.04471857
H      -0.15134537      1.03769555      2.46868735
H      -1.79263678     -0.84562336     -0.59623998
H      -3.30713683      0.85104327      2.36248495
H      -5.74041363      0.71534476      2.69086992
H      -7.13533827     -0.53537781      1.03248921
H      -5.97269133     -1.59831278     -0.90703123
H       3.87588114      1.96943271      1.48503560
H       6.04281728      1.79454835      0.30623365
H       6.34153281      0.15759609     -1.53459284
H       4.47091362     -1.33657990     -2.18609190
