35
COCC(C)N(C(=O)CCl)c1c(C)csc1C
C       2.61310003     -2.84480959     -1.02265664
O       1.50447217     -2.16575743     -0.44702137
C       1.91605368     -1.29079943      0.60988524
C       0.70274604     -0.47917662      1.11354427
C       1.05707219      0.30078367      2.38349893
N       0.10787011      0.40079348      0.07088451
C       0.91802058      1.33766839     -0.58939353
O       2.06274619      1.60085524     -0.21015895
C       0.32596745      1.99782274     -1.83339266
Cl      1.56436633      2.10314496     -3.11154950
C      -1.29767230      0.49684403     -0.00665339
C      -2.16044178     -0.58475493     -0.41629637
C      -1.70742794     -1.93240724     -0.87864315
C      -3.48719868     -0.20137310     -0.38137232
S      -3.70040848      1.40905606      0.12360808
C      -2.01620554      1.63133561      0.34546877
C      -1.55076320      2.93716630      0.90651382
H       2.23924993     -3.51236018     -1.80353884
H       3.30547232     -2.12970501     -1.47716958
H       3.13015847     -3.44415349     -0.26720439
H       2.30686687     -1.90716356      1.42873022
H       2.72726962     -0.64547523      0.26024920
H      -0.06899097     -1.20753545      1.39217201
H       1.85998361      1.02429266      2.21539968
H       0.18734098      0.85006033      2.75890009
H       1.38634967     -0.38204269      3.17404812
H       0.00078889      3.01203434     -1.59263950
H      -0.50040780      1.42719876     -2.25944476
H      -2.52411488     -2.47926014     -1.36217002
H      -1.35796348     -2.53368789     -0.03463106
H      -0.90005296     -1.83586540     -1.61079020
H      -4.35109962     -0.79651827     -0.64615262
H      -2.15709171      3.23194780      1.77007541
H      -1.62306727      3.72544531      0.15027329
H      -0.51298854      2.88639597      1.24762722
