40
CC(C)CC(Br)C(=O)NC(C)C(=O)NC(C)C(=O)O
C      -5.51151527     -0.81161986      0.14732206
C      -4.44845920     -0.50832716     -0.90997794
C      -4.92391952      0.64711596     -1.79642812
C      -3.08096458     -0.15409687     -0.28733018
C      -2.42426736     -1.27119697      0.52437411
Br     -1.75688927     -2.68943972     -0.64826884
C      -1.23306073     -0.77054088      1.33369770
O      -1.20916533     -0.84223629      2.56123481
N      -0.21458498     -0.19472503      0.61045591
C       1.02566457      0.24622409      1.23781488
C       0.86034074      1.62140429      1.87354718
C       2.12189971      0.26892765      0.15407733
O       1.87471283      0.05075483     -1.03173447
N       3.39106938      0.55054220      0.61778475
C       4.54562491      0.40689191     -0.27133289
C       5.66165078      1.34772400      0.15521673
C       5.03633848     -1.03814451     -0.20220695
O       4.84165439     -1.82163499      0.71610986
O       5.78224654     -1.39798077     -1.26521434
H      -6.48888723     -0.97300196     -0.32050826
H      -5.61124038      0.01490180      0.85894369
H      -5.27111973     -1.71896194      0.70868434
H      -4.34116224     -1.39071192     -1.55140200
H      -5.87765219      0.40294105     -2.27632806
H      -5.06247773      1.56450107     -1.21412612
H      -4.19709638      0.85423412     -2.58904174
H      -2.40376820      0.16893429     -1.08965662
H      -3.21033022      0.72285931      0.36201898
H      -3.12065002     -1.75676256      1.21258242
H      -0.16588508     -0.37222469     -0.39151440
H       1.30965949     -0.49222142      1.99683516
H       0.60967491      2.37531859      1.11850690
H       0.05939205      1.62084956      2.61997422
H       1.78122449      1.94402558      2.37012023
H       3.56239292      0.33835362      1.59510750
H       4.23348912      0.62215294     -1.29907407
H       5.99945672      1.12909417      1.17479205
H       5.32260508      2.38886774      0.13284961
H       6.52856675      1.25533047     -0.50748564
H       6.00543180     -2.33812168     -1.09863689
