23
Clc1cc(Cl)cc(Oc2ccc(Cl)c(Cl)c2)c1
Cl     -4.27924436      1.91679395     -2.06524554
C      -3.22849005      0.94422822     -1.11100595
C      -3.64871242      0.49719809      0.13999985
C      -2.79535114     -0.29894550      0.90142323
Cl     -3.31140501     -0.87043949      2.44033387
C      -1.52963582     -0.64239259      0.42850460
C      -1.11198760     -0.16735426     -0.81700725
O       0.10867702     -0.49405355     -1.36309855
C       1.21682085     -0.34790005     -0.56025570
C       2.13255420     -1.39955377     -0.54858080
C       3.29434798     -1.30117565      0.21911678
C       3.54832501     -0.14421856      0.96294274
Cl      5.00372285     -0.09040043      1.89186154
C       2.63783638      0.91960292      0.93002661
Cl      2.89379528      2.38397541      1.81119980
C       1.47429627      0.82068031      0.16089193
C      -1.96639587      0.61015614     -1.59859267
H      -4.63415219      0.76030669      0.51457095
H      -0.88207395     -1.28054199      1.02319057
H       1.94108600     -2.29663191     -1.13276012
H       4.00024176     -2.12856886      0.23046936
H       0.77957275      1.65528786      0.11981705
H      -1.64382796      0.95394700     -2.57780230
