24
CC(=O)CC(=O)CC(C)C
C       3.49522912      0.12275450      1.23832151
C       2.74849159      0.53860000     -0.00106531
O       2.78026864      1.69750008     -0.41563891
C       1.91016538     -0.50355073     -0.68369755
C       0.57988153     -0.68152203     -0.00547571
O       0.40605204     -1.60843558      0.78610665
C      -0.47984326      0.37413162     -0.28539674
C      -1.89107424     -0.03685458      0.16051923
C      -2.82085204      1.17801073      0.14223179
C      -2.46195336     -1.13801411     -0.73655265
H       2.78560783     -0.13780381      2.02704124
H       4.13789666     -0.73146225      1.01122256
H       4.12325173      0.94904650      1.58291863
H       1.75482017     -0.22452069     -1.73098448
H       2.44859493     -1.45705937     -0.69492242
H      -0.16873099      1.28087058      0.24666686
H      -0.47734732      0.59435631     -1.35922282
H      -1.85410615     -0.41667489      1.18917027
H      -3.82797286      0.90242656      0.47268826
H      -2.45235533      1.95995611      0.81464182
H      -2.89871642      1.60454669     -0.86370352
H      -1.83998150     -2.03801224     -0.70888654
H      -3.46741952     -1.42189561     -0.40761094
H      -2.52990663     -0.80639379     -1.77837122
