28
NC(Cc1c[nH]c2ccc(O)cc12)C(=O)O
N      -1.86417632      1.12002169     -2.06695665
C      -1.89102824      1.18817162     -0.56594277
C      -1.77161497     -0.18735904      0.10773318
C      -0.48792870     -0.88956212     -0.21927796
C      -0.32979734     -1.94206275     -1.10028762
N       0.99333496     -2.29358940     -1.11844820
C       1.71107359     -1.48713530     -0.26704386
C       3.08024178     -1.48191537      0.02629510
C       3.53859366     -0.54328796      0.95410134
C       2.65701998      0.34230361      1.55909311
O       3.17453952      1.22725514      2.46148567
C       1.29229183      0.33342102      1.26192954
C       0.80722845     -0.60222299      0.32257664
C      -3.20355607      1.86173577     -0.14199464
O      -3.65826168      1.88109620      0.99023420
O      -3.80212916      2.47242865     -1.19941870
H      -2.36001586      0.26566740     -2.34641617
H      -0.89179516      0.91144771     -2.32629294
H      -1.08021708      1.85631944     -0.25330423
H      -2.62171669     -0.82038345     -0.18087002
H      -1.84286054     -0.07548770      1.19758560
H      -1.04587612     -2.47761042     -1.70988677
H       1.39259837     -3.04117273     -1.66961170
H       3.76703500     -2.17928485     -0.44192873
H       4.59466294     -0.50865481      1.20970179
H       2.44726145      1.75223133      2.83401388
H       0.60907012      1.02531335      1.74125270
H      -3.21397774      2.29231596     -1.97744539
