17
CCOC(=O)N(C)N=O
C       2.98023035      0.55370388      0.54850332
C       1.81914830     -0.42066426      0.58744676
O       0.65835816      0.24725151      0.07956281
C      -0.47622057     -0.51502596      0.05439708
O      -0.50286713     -1.68246293      0.43661523
N      -1.57906101      0.16399619     -0.44293400
C      -2.87164862     -0.47911382     -0.54663912
N      -1.42694481      1.58332293     -0.87817776
O      -2.47866790      2.07525239     -1.30063159
H       3.89368159      0.08765940      0.92833797
H       3.15879490      0.89983894     -0.47493230
H       2.75903243      1.44117810      1.15064650
H       1.63971043     -0.74068383      1.61989912
H       2.04699967     -1.29221495     -0.03629313
H      -3.18943774     -0.47999426     -1.59371626
H      -2.83471705     -1.51313015     -0.19322029
H      -3.59639103      0.07108681      0.06113566
