28
CC/C=C\CC1=C(C)CCC1=O
C       2.64228245      2.08312241     -0.50394070
C       2.86948735      0.58539619     -0.64084750
C       1.97665050     -0.00518134     -1.69288846
C       0.97298467     -0.88213886     -1.52421303
C       0.48293747     -1.50232209     -0.24506202
C      -0.87091120     -1.00764991      0.12468981
C      -1.28452118     -0.09666375      1.01887049
C      -0.43335088      0.73627750      1.91715600
C      -2.77480503      0.07517370      1.07906416
C      -3.33265103     -0.90145544      0.05398090
C      -2.09779227     -1.55304060     -0.49036016
O      -2.09566053     -2.43220253     -1.33977414
H       2.83636748      2.60258501     -1.44850383
H       1.61277379      2.30090216     -0.20023591
H       3.31383565      2.49943015      0.25375057
H       3.91166353      0.40166483     -0.92692822
H       2.72868468      0.11174056      0.33419284
H       2.18349122      0.32612291     -2.71087900
H       0.43356629     -1.20521247     -2.41635691
H       1.18335697     -1.33668517      0.57809183
H       0.45523988     -2.59142035     -0.37519742
H      -0.68472616      0.54090596      2.96445583
H       0.63328663      0.53534381      1.78833804
H      -0.59754860      1.79944106      1.71452677
H      -3.06256160      1.10288633      0.83233893
H      -3.15573201     -0.15437488      2.08014393
H      -3.86791932     -0.38299295     -0.74637010
H      -3.97842873     -1.64965226      0.52195729
