33
O=C1C=Cc2ccccc2/C1=N/Nc1ccc([N+](=O)[O-])cc1Cl
O      -1.06982303     -2.76289610      0.60568496
C      -1.86639489     -1.83837563      0.50015178
C      -3.31418426     -2.08404631      0.64494227
C      -4.20745313     -1.12260934      0.39413845
C      -3.80711081      0.21674400     -0.03690954
C      -4.79187129      1.16387890     -0.34945006
C      -4.43437238      2.45170137     -0.75605857
C      -3.09104547      2.80708420     -0.85203778
C      -2.10151327      1.87479715     -0.54194719
C      -2.45696371      0.58018913     -0.13677436
C      -1.40303895     -0.41228119      0.20177234
N      -0.15337461     -0.03286768      0.23076845
N       0.78783090     -0.94765293      0.57312590
C       2.14844451     -0.66735496      0.32445348
C       2.58253009      0.63711209      0.03551551
C       3.93664830      0.92509183     -0.16184479
C       4.88103119     -0.10127866     -0.05461267
N       6.30358051      0.19508490     -0.26016987
O       6.61619382      1.36317425     -0.53074968
O       7.10826381     -0.74079935     -0.15200764
C       4.48284674     -1.40602807      0.25257464
C       3.12504799     -1.67673267      0.44690913
Cl      2.67300481     -3.30275210      0.83213259
H      -3.60642804     -3.08331908      0.94474334
H      -5.26866511     -1.33155843      0.49857397
H      -5.84835993      0.91225368     -0.28048397
H      -5.20630944      3.17936847     -0.99673551
H      -2.81294820      3.81031691     -1.16668280
H      -1.05538846      2.16398983     -0.61825080
H       0.55390915     -1.95221676      0.57910527
H       1.85545614      1.44368903     -0.03456961
H       4.23032553      1.94767250     -0.39034377
H       5.21013151     -2.20937897      0.34547394
