14
Nc1ccc(F)cc1
N       2.32998623      0.16936217      0.02272246
C       0.93712753      0.06368017     -0.05215702
C       0.14414697      1.21661498     -0.06437127
C      -1.24876820      1.12261527     -0.01774316
C      -1.84601830     -0.12677759      0.08428927
F      -3.18124222     -0.21928334      0.13410087
C      -1.07582893     -1.27991994      0.15620315
C       0.31667459     -1.18020112      0.10916092
H       2.82457290     -0.66432135     -0.27909349
H       2.70383183      1.01306128     -0.40053671
H       0.60642626      2.19903913     -0.11025543
H      -1.86608281      2.01426880     -0.04523737
H      -1.55948682     -2.24507187      0.26314411
H       0.91466096     -2.08306659      0.19977365
