23
CCCOC(=O)c1cccnc1
C      -4.29075888      0.38878994      0.11049291
C      -2.83266516      0.73565291      0.35102817
C      -1.89820060     -0.34883821     -0.17051497
O      -0.54986843      0.06139608      0.09817476
C       0.39354274     -0.81864370     -0.31728557
O       0.18331357     -1.88321722     -0.87655685
C       1.75000188     -0.32014181     -0.00262992
C       2.86383608     -1.08829324     -0.35311206
C       4.14287544     -0.62095381     -0.05782201
C       4.26424113      0.60314099      0.58022090
N       3.21086458      1.37203276      0.93362378
C       1.97624590      0.89324972      0.63427771
H      -4.93814789      1.18345264      0.49421072
H      -4.49469190      0.27104456     -0.95854417
H      -4.56079765     -0.54346212      0.61673187
H      -2.65770482      0.88718481      1.42295984
H      -2.59248838      1.69081519     -0.13124940
H      -2.09974719     -1.29820925      0.33943704
H      -2.03301201     -0.47579432     -1.25110985
H       2.73849123     -2.04600997     -0.85358380
H       5.02288621     -1.19840440     -0.31950263
H       5.24008572      1.00991537      0.83148008
H       1.16169847      1.54529309      0.93727593
