16
O=C(O)C=Cc1c[nH]cn1
O      -3.32938196      1.10180141     -0.54757072
C      -2.83497678      0.51461987      0.39588048
O      -3.54910667      0.17750224      1.48112179
C      -1.44642334      0.07732870      0.54272787
C      -0.56415377      0.31964859     -0.43830641
C       0.80156313     -0.06237086     -0.39317623
C       1.74936289      0.15735241     -1.36322060
N       2.89719909     -0.39042677     -0.85706630
C       2.59985445     -0.90758489      0.37299940
N       1.33590539     -0.72328946      0.68080457
H      -4.44865366      0.51021130      1.28391674
H      -1.16821582     -0.43747757      1.45445549
H      -0.89927227      0.84099603     -1.33254551
H       1.71543745      0.63525615     -2.33177427
H       3.80276767     -0.41219550     -1.30534592
H       3.33809418     -1.40137165      0.99074195
