50
CC(C)(C)c1ccc(OP(=O)(Oc2ccccc2)Oc2ccccc2)cc1
C       5.83802238      0.19173396     -1.42691969
C       5.00414104     -0.42974315     -0.28362816
C       5.59517426      0.08562273      1.04635453
C       5.19161248     -1.96047788     -0.36366783
C       3.50581481     -0.08586026     -0.34926034
C       2.61913413     -0.59899964      0.61794569
C       1.24959862     -0.30861864      0.59185097
C       0.73454601      0.50538207     -0.40790260
O      -0.58132121      0.84626857     -0.52644275
P      -1.77209516      0.24939921      0.38465089
O      -1.63057696      0.49087945      1.86214653
O      -3.09902908      0.87241517     -0.28983644
C      -3.43180668      2.19656388     -0.27797222
C      -4.56114514      2.54543235     -1.02080519
C      -4.98429890      3.87390222     -1.07595698
C      -4.27845347      4.85638006     -0.38474232
C      -3.15275090      4.50834300      0.36106950
C      -2.72774888      3.17816940      0.41616587
O      -1.82947757     -1.30200296     -0.05540374
C      -2.75130001     -2.20603346      0.38844178
C      -2.67349761     -3.47958069     -0.17809519
C      -3.57011483     -4.47675376      0.20677941
C      -4.54639201     -4.20118071      1.16184185
C      -4.62325764     -2.93028848      1.73037044
C      -3.72578215     -1.93074791      1.34535851
C       1.59011098      1.03125520     -1.37147440
C       2.95866513      0.73917770     -1.34415831
H       5.79125713      1.28687191     -1.41173781
H       6.89550299     -0.08575939     -1.34063232
H       5.49388036     -0.15153338     -2.40957886
H       5.45223002      1.16794433      1.14829234
H       6.67120790     -0.11574736      1.10527040
H       5.13195025     -0.39075406      1.91738577
H       6.25441060     -2.22954913     -0.35636086
H       4.72500911     -2.48056460      0.48008505
H       4.75154763     -2.36409401     -1.28328047
H       2.98636517     -1.23812080      1.41875291
H       0.62325819     -0.73003719      1.37245252
H      -5.11448485      1.78130289     -1.56085320
H      -5.86343598      4.14085347     -1.65648978
H      -4.60627774      5.89208872     -0.42395665
H      -2.60456093      5.27392239      0.90491226
H      -1.85177035      2.94496873      1.01413022
H      -1.91205529     -3.69809407     -0.92264994
H      -3.50514380     -5.46681597     -0.23628127
H      -5.24538125     -4.97624853      1.46564255
H      -5.38197050     -2.71623055      2.47943029
H      -3.81189481     -0.95608143      1.81618515
H       1.19576808      1.67371241     -2.15495019
H       3.57681645      1.17732819     -2.12247794
