35
CCNc1nc(NC(C)(C)C)nc(OC)n1
C      -4.06610049     -2.40602393      0.55025701
C      -3.36196979     -1.05832944      0.56846887
N      -2.04041254     -1.19924041     -0.01539428
C      -1.26565600     -0.04389168      0.01823037
N       0.03132385     -0.23707249      0.20886941
C       0.79254851      0.84733020      0.23589817
N       2.15711089      0.76112849      0.44418933
C       2.95095768     -0.36401175     -0.06061679
C       4.43134513      0.01139579      0.16518520
C       2.73534629     -0.58076298     -1.56555654
C       2.67078017     -1.65088939      0.72935241
N       0.33158728      2.07704752      0.08533377
C      -0.97764526      2.16114435     -0.10157462
O      -1.44565848      3.44994368     -0.25918148
C      -2.84078994      3.51126460     -0.52346590
N      -1.82738785      1.14324506     -0.13950422
H      -4.16342464     -2.78417719     -0.47299235
H      -5.06852714     -2.31847653      0.98049131
H      -3.50828939     -3.14904970      1.13017556
H      -3.96539557     -0.34173097     -0.00143084
H      -3.29219449     -0.70460342      1.60436360
H      -1.46196803     -1.92690293      0.39363187
H       2.52233772      1.67934706      0.20730124
H       5.10291782     -0.78396973     -0.17727673
H       4.69571937      0.92753341     -0.37628345
H       4.63612126      0.19097600      1.22732594
H       3.42094801     -1.34179885     -1.95540702
H       1.71814575     -0.91757029     -1.79106567
H       2.90656839      0.34473480     -2.12747214
H       2.73217453     -1.47388130      1.80930627
H       1.68018294     -2.06403103      0.51849111
H       3.39651544     -2.43255552      0.47608634
H      -3.11006970      4.56422589     -0.65173444
H      -3.09427376      2.98885779     -1.45266484
H      -3.42286795      3.12079488      0.31866351
