36
Cc1ccc2oc(/C=C/c3nc4cc(C)ccc4o3)nc2c1
C      -7.45763936      1.46802095     -0.07324608
C      -6.21486443      0.62953941     -0.17081087
C      -6.31651006     -0.75845380     -0.37914117
C      -5.18312634     -1.58022130     -0.44596585
C      -3.96442204     -0.93631357     -0.28192026
O      -2.72447352     -1.49582970     -0.30088475
C      -1.84665571     -0.44403852     -0.08749972
C      -0.44176335     -0.65704733     -0.04317694
C       0.40524708      0.36159578      0.16366249
C       1.81164068      0.16157329      0.21011260
N       2.70654669      1.12215718      0.41048774
C       3.92427348      0.49419093      0.38055260
C       5.22546931      0.99136869      0.52999168
C       6.30367873      0.08703324      0.45725141
C       7.71227140      0.59468113      0.58035457
C       6.06598090     -1.27848154      0.21418166
C       4.76864968     -1.78682202      0.06295382
C       3.74414625     -0.85498368      0.15722839
O       2.40738513     -1.08209503      0.04724290
N      -2.47961293      0.71543595      0.05971280
C      -3.81159433      0.41692036     -0.06222983
C      -4.95139046      1.22880245      0.00294144
H      -7.26369774      2.49414601     -0.40284686
H      -7.81313013      1.48965545      0.96145558
H      -8.25021645      1.06601250     -0.71304590
H      -7.29842481     -1.21646179     -0.49389229
H      -5.24888667     -2.64801958     -0.61050698
H      -0.09228246     -1.67438840     -0.18357703
H       0.04921981      1.37811745      0.30359739
H       5.38141126      2.05149656      0.69870446
H       8.36193362     -0.16362861      1.02984212
H       8.10259394      0.85616698     -0.40793811
H       7.75385344      1.48007825      1.22341451
H       6.90651400     -1.96782605      0.14083706
H       4.57369165     -2.83573225     -0.11950572
H      -4.84581625      2.29335061      0.18252197
