21
CC(C)c1ccccc1Br
C      -1.94683119      0.94536034      0.91828410
C      -1.33966357      0.26475270     -0.31334522
C      -2.00243504     -1.09366970     -0.56674213
C       0.17360750      0.13483175     -0.19162931
C       0.71284781     -0.64222724      0.85521113
C       2.09152232     -0.79682136      1.01585145
C       2.96699252     -0.17760683      0.13276022
C       2.46193428      0.59554385     -0.91000189
C       1.07852150      0.75343021     -1.07498509
Br      0.52960336      1.83531014     -2.54005806
H      -1.48062914      1.92110350      1.09485931
H      -3.02081221      1.10825139      0.77611528
H      -1.82173796      0.34521763      1.82585410
H      -1.60124811      0.89423966     -1.16786461
H      -1.57603824     -1.57700970     -1.45283977
H      -1.87960687     -1.77774636      0.27969646
H      -3.07749147     -0.97004792     -0.73748577
H       0.05500279     -1.14092361      1.56465072
H       2.47825206     -1.40182439      1.83214617
H       4.04046678     -0.29526015      0.25410712
H       3.15774286      1.07509608     -1.59458421
