42
COc1ccc2c3c1O[C@H]1C[C@@H](O)C=C[C@@]31CCN(C)C2
C      -3.80182653     -3.56465173      0.49318109
O      -2.45176502     -3.12979012      0.56574642
C      -2.19264493     -1.84250752      0.18997409
C      -3.13093471     -0.91734602     -0.26643400
C      -2.74541436      0.40235895     -0.56161892
C      -1.40797554      0.81812506     -0.44506156
C      -0.46702450     -0.14018210     -0.08167477
C      -0.87280443     -1.41698637      0.28626701
O       0.12525059     -2.18127657      0.83513679
C       1.34061199     -1.40784032      0.67416235
C       2.23581228     -2.25016565     -0.24262674
C       3.40988435     -1.46139890     -0.79428622
O       4.09383597     -2.23741950     -1.76872424
C       2.91510676     -0.22936227     -1.47116703
C       1.80417844      0.41292473     -1.07771627
C       0.99839769      0.03541415      0.15540236
C       1.19551383      1.08309453      1.27559536
C       0.88313361      2.54742611      0.90653923
N      -0.52942351      2.86917050      0.63318587
C      -0.69256535      4.32652160      0.57749365
C      -1.03662840      2.27012939     -0.61561131
H      -4.44292656     -2.97747214      1.15903833
H      -3.83703219     -4.60504500      0.83055378
H      -4.17106693     -3.53680729     -0.53734620
H      -4.18047424     -1.17212473     -0.36744895
H      -3.51500952      1.11546920     -0.85148915
H       1.81852419     -1.35232113      1.66116328
H       1.64476987     -2.67199738     -1.06928896
H       2.59422823     -3.13445623      0.30093080
H       4.12542798     -1.19643061     -0.00867779
H       4.28323195     -3.10409902     -1.37179558
H       3.47254903      0.12838785     -2.33327460
H       1.49946138      1.27958547     -1.65533182
H       2.24417105      1.04907197      1.60399497
H       0.59927696      0.81274697      2.15912700
H       1.19860031      3.13592206      1.77946556
H       1.52444179      2.88229078      0.08166133
H      -0.12298580      4.77310868     -0.24565573
H      -1.74822249      4.59404510      0.45470946
H      -0.36763109      4.79025567      1.51577059
H      -0.34275002      2.40336369     -1.45262875
H      -1.94930213      2.80026814     -0.92124072
