56
CC12CCC(=O)C=C1CCC1C3CCC(O)(C(=O)CO)C3(C)CC(O)C12F
C      -2.76189700      1.08680638      1.47607462
C      -2.62244443      0.00299209      0.38127143
C      -3.30795660     -1.30208684      0.88762104
C      -4.82870822     -1.23822828      0.93350598
C      -5.39064376     -0.83311361     -0.39883046
O      -6.52160077     -1.15537566     -0.76223972
C      -4.58957208      0.08263787     -1.24183655
C      -3.36974051      0.50801964     -0.87164128
C      -2.68471181      1.56702700     -1.69962081
C      -1.24682704      1.19515216     -2.02689795
C      -0.44845073      0.89594177     -0.75122591
C       1.05118963      0.71664385     -1.07750493
C       1.40374261     -0.31717477     -2.16366921
C       2.81195979     -0.83658886     -1.83289530
C       3.26622794     -0.05985297     -0.58755256
O       3.88190469      1.14468851     -1.06033079
C       4.23537592     -0.88102748      0.29835271
O       4.05362566     -2.07395441      0.56394528
C       5.45949745     -0.14735582      0.82527762
O       6.41010017      0.01555227     -0.22023268
C       1.92648707      0.31072171      0.13164776
C       2.10869211      1.48318966      1.11488814
C       1.27098220     -0.88550718      0.85922423
C      -0.19656676     -0.65629984      1.24811335
O      -0.63766485     -1.86625761      1.87148151
C      -1.09148593     -0.27957722      0.03628332
F      -1.07531442     -1.37672258     -0.79988675
H      -2.40247472      0.72675798      2.44495601
H      -2.20342969      1.99539838      1.23648946
H      -3.80532867      1.38919548      1.61676239
H      -2.96640150     -1.55167392      1.89722250
H      -3.02368908     -2.13987833      0.23814221
H      -5.21965616     -2.22845303      1.19012254
H      -5.18011547     -0.52833887      1.68861010
H      -5.09378088      0.44295119     -2.13271001
H      -3.22209279      1.74950070     -2.63817423
H      -2.70308978      2.51471505     -1.14683705
H      -0.78040079      2.02677218     -2.57038004
H      -1.23737957      0.32882480     -2.70094466
H      -0.50559601      1.79097365     -0.11684170
H       1.40489176      1.69080608     -1.44938735
H       0.70546955     -1.15821750     -2.19371986
H       1.38460400      0.15031869     -3.15409592
H       2.76775071     -1.91718917     -1.65699333
H       3.48325705     -0.67558532     -2.68368053
H       4.73952048      0.90340746     -1.47175547
H       5.90705635     -0.69904620      1.66278540
H       5.16341400      0.84124158      1.19808685
H       6.99429851     -0.78485844     -0.21442677
H       2.55802951      2.35796313      0.63225595
H       2.75795907      1.19242635      1.94905654
H       1.15684454      1.81640288      1.54248332
H       1.32386411     -1.79427276      0.24445226
H       1.83683748     -1.13100536      1.76838784
H      -0.24544550      0.12515776      2.01035885
H      -0.70111682     -2.53454424      1.16353275
