38
O=S1(=O)OC2(c3cc(O)ccc3Oc3ccc(O)cc32)c2ccccc21
O      -2.90751241      1.79318735      1.66716158
S      -2.35235115      0.45825878      1.63105867
O      -2.77511099     -0.60607560      2.51423944
O      -0.72663009      0.56648004      1.68347826
C      -0.08857845      0.16667115      0.45133276
C       0.69019153      1.36479581     -0.06345134
C       0.13036105      2.65685546     -0.11902253
C       0.86496360      3.71632928     -0.64620963
O       0.34815437      4.97593933     -0.70730056
C       2.14972297      3.52075144     -1.13265266
C       2.71445065      2.24852850     -1.08366358
C       1.99097814      1.18048049     -0.54549292
O       2.63483316     -0.03186068     -0.53665895
C       2.11341122     -1.03818693      0.23782484
C       2.95610083     -2.13052750      0.46239659
C       2.52062699     -3.20057299      1.24036412
C       1.24513900     -3.17300570      1.78612471
O       0.85650892     -4.23618239      2.54511300
C       0.39259792     -2.09526445      1.55875067
C       0.82103217     -1.00623252      0.77365844
C      -1.18770905     -0.23971537     -0.52792126
C      -1.04466734     -0.69332491     -1.83508588
C      -2.19331708     -1.01566389     -2.56854345
C      -3.47321083     -0.88637690     -2.00229897
C      -3.62403318     -0.43267364     -0.69365306
C      -2.46917176     -0.12404339      0.00000521
H      -0.87747537      2.83488849      0.24454605
H      -0.52699946      4.97989483     -0.28417108
H       2.71023336      4.35533727     -1.54414100
H       3.72244727      2.09061297     -1.45840445
H       3.95614698     -2.14437103      0.03678977
H       3.17400868     -4.04894972      1.42305890
H      -0.02814998     -4.05994392      2.90742089
H      -0.60493388     -2.10396260      1.98824641
H      -0.06258709     -0.79987938     -2.29039347
H      -2.09435678     -1.37178919     -3.59270310
H      -4.35033825     -1.14334926     -2.59305173
H      -4.60477570     -0.32705924     -0.24121802
