22
Clc1ccc(-c2c(Cl)cc(Cl)cc2Cl)cc1
Cl     -5.23662139     -0.21344337     -0.13804549
C      -3.52018624     -0.14347982     -0.04651479
C      -2.77734387     -1.32130525     -0.06686733
C      -1.38289731     -1.26418811      0.00750518
C      -0.72005221     -0.02934315      0.10280336
C       0.74950896      0.03055594      0.18116541
C       1.54355416      0.12008794     -0.98184449
Cl      0.83890895      0.16465540     -2.56459701
C       2.93913944      0.17701876     -0.90860587
C       3.56578320      0.14532808      0.33133746
Cl      5.28169712      0.21525053      0.42283525
C       2.81568841      0.05753495      1.49786901
C       1.42022334      0.00072241      1.42228104
Cl      0.55747604     -0.10771956      2.92145520
C      -1.48728582      1.14721000      0.12184295
C      -2.88175656      1.09064756      0.04749556
H      -3.27437644     -2.28485867     -0.14019301
H      -0.81496109     -2.19240522     -0.00943303
H       3.53252847      0.24580115     -1.81731723
H       3.31286223      0.03319547      2.46473204
H      -1.00157418      2.11837583      0.19496584
H      -3.46031522      2.01035913      0.06346382
