21
CCC(C)C(C)O
C       2.18254313     -1.07533559      0.47802778
C       1.55772467      0.30680999      0.35014116
C       0.02072753      0.31651353      0.51254134
C      -0.45629883      1.77625994      0.50904144
C      -0.69564220     -0.53828562     -0.55847136
C      -2.21236485     -0.56720637     -0.39704115
O      -0.38052334     -0.04865773     -1.85964783
H       1.91143237     -1.71952915     -0.36317781
H       3.27429365     -0.99265405      0.48801480
H       1.87183084     -1.56369033      1.40686933
H       1.84354609      0.74268680     -0.61477564
H       2.00028316      0.94738086      1.12364105
H      -0.21732134     -0.10499817      1.49835063
H      -0.28902735      2.25195580     -0.46292487
H      -1.52159807      1.84848773      0.74773096
H       0.07976838      2.36082278      1.26492611
H      -0.33437420     -1.57052865     -0.49930119
H      -2.50061033     -0.86472921      0.61547980
H      -2.66281995      0.40283619     -0.63043973
H      -2.65085274     -1.28167902     -1.10287842
H      -0.82071663     -0.62645971     -2.50610642
