35
COC(=O)Nc1nc2cc(C(=O)c3ccccc3)ccc2[nH]1
C      -7.49727689      0.80326394     -0.87098206
O      -6.51432414     -0.18224901     -0.54995427
C      -5.25370115      0.30712925     -0.42806324
O      -4.94361744      1.48368956     -0.57472992
N      -4.40359618     -0.71205456     -0.12115640
C      -3.06171642     -0.53800315      0.06992742
N      -2.22084956     -1.50076274      0.36563231
C      -0.99169846     -0.89414700      0.47217921
C       0.25728030     -1.45150089      0.77505705
C       1.37603133     -0.60432667      0.80362494
C       2.69301975     -1.20335377      1.13284546
O       2.75141752     -2.08872034      1.98178082
C       3.93890626     -0.75290785      0.46071219
C       5.13706505     -0.78954268      1.18371653
C       6.32930476     -0.38247987      0.58340433
C       6.32974123      0.04982747     -0.74256856
C       5.14154616      0.06797058     -1.47348910
C       3.94590028     -0.33813874     -0.87687159
C       1.24477766      0.77371166      0.57220179
C       0.00118223      1.34306060      0.27210519
C      -1.08851480      0.47231311      0.22859770
N      -2.42073888      0.67140362     -0.02271268
H      -8.46710744      0.30329248     -0.94307248
H      -7.55490202      1.55877217     -0.08113747
H      -7.27390871      1.26692303     -1.83694530
H      -4.77111446     -1.64650291     -0.02384842
H       0.34686645     -2.51369542      0.97876711
H       5.14259570     -1.13681975      2.21516416
H       7.25767574     -0.40977539      1.14855722
H       7.26047828      0.36167123     -1.21060539
H       5.14934131      0.38879451     -2.51243917
H       3.03657239     -0.34383915     -1.47210684
H       2.11113070      1.42920514      0.64051645
H      -0.10557501      2.40803425      0.09412078
H      -2.88219151      1.54604087     -0.23822777
