23
Cn1cncc1CC(N)C(=O)O
C      -0.37510915      1.58168300      1.75214393
N       0.76422167      0.92914632      1.15267183
C       1.91749701      0.63865441      1.82932322
N       2.80389606      0.06222435      1.05263871
C       2.20077451     -0.03009786     -0.17061742
C       0.91982600      0.48908656     -0.14265875
C      -0.09870127      0.59232192     -1.23584397
C      -1.01909461     -0.63475376     -1.37163616
N      -0.29283472     -1.93451111     -1.50756397
C      -1.95631373     -0.72010743     -0.16243254
O      -2.83160559      0.08890444      0.10405199
O      -1.66782287     -1.79387505      0.61731103
H      -0.02540098      2.24970519      2.54421634
H      -0.90386830      2.17093886      1.00159927
H      -1.02579682      0.81385142      2.17571642
H       2.05670111      0.86974624      2.87775905
H       2.71944847     -0.47136706     -1.01201765
H      -0.70203050      1.49806454     -1.10614698
H       0.43733829      0.72864345     -2.18500430
H      -1.64842347     -0.51653029     -2.26155674
H       0.51434504     -1.78991204     -2.11950465
H      -0.89645310     -2.58573823     -2.01947925
H      -0.89059306     -2.23607786      0.18703057
