34
O=C(OCC1CO1)c1ccc(C(=O)OCC2CO2)cc1
O       2.82982637      1.81704051      1.30911777
C       2.67476183      0.69413003      0.85711168
O       3.65743690     -0.19820503      0.58743857
C       4.99011046      0.23749844      0.90324301
C       5.54046943      1.04790992     -0.22187561
C       6.00780282      0.39767937     -1.49668207
O       6.93273948      0.83832866     -0.49081559
C       1.34174525      0.12651688      0.51439515
C       1.18312221     -1.16556622     -0.00367244
C      -0.09428289     -1.64885267     -0.30956846
C      -1.22692770     -0.84905928     -0.10179082
C      -2.55981861     -1.41596556     -0.44600449
O      -2.71597886     -2.53652051     -0.90337541
O      -3.54305197     -0.52227958     -0.18090379
C      -4.85832025     -0.99842945     -0.49204250
C      -5.83290901      0.07150234     -0.12959306
C      -6.18677951      1.16744214     -1.09904847
O      -7.05791096      0.04825305     -0.87215433
C      -1.06840436      0.44288645      0.41665393
C       0.20900832      0.92622755      0.72241127
H       5.01159590      0.79883966      1.84485952
H       5.58612389     -0.66813333      1.06267002
H       5.15927708      2.05949949     -0.25451725
H       5.87184112     -0.66923337     -1.62084191
H       5.95704294      0.97178416     -2.41323929
H       2.04158082     -1.81101760     -0.17535040
H      -0.20107221     -2.65577960     -0.71150411
H      -4.91774786     -1.23992014     -1.56022182
H      -5.07448544     -1.89741501      0.09654897
H      -5.88277021      0.26881252      0.93218293
H      -6.49349229      2.12627828     -0.70059750
H      -5.66908242      1.21534845     -2.04882986
H      -1.92705186      1.08762708      0.58953478
H       0.31560159      1.93277237      1.12522843
