62
CCCCCCCCCCCCN(CCCN)CCCN
C       8.78476557     -1.63036087      1.39225139
C       7.76759291     -0.54796334      1.06407321
C       7.56182045     -0.41554548     -0.44509323
C       6.64229237      0.74521933     -0.83699650
C       5.22469611      0.70650265     -0.25542910
C       4.42797837     -0.53137003     -0.67505571
C       3.01156435     -0.56861513     -0.09141806
C       2.09523885      0.52754748     -0.64004513
C       0.66570143      0.36900789     -0.11361844
C      -0.24972910      1.46787631     -0.65846081
C      -1.66379878      1.43796367     -0.06695191
C      -2.46376291      0.19062985     -0.47154540
N      -3.83836197      0.23539038      0.07038156
C      -4.71164574      1.06190334     -0.78918568
C      -5.93004923      1.59309749     -0.01883677
C      -6.76608032      2.51798215     -0.90398276
N      -7.93250242      3.01142850     -0.17903920
C      -4.38715070     -1.13471658      0.20266298
C      -3.92668421     -1.78864100      1.51400351
C      -4.39241386     -3.24001358      1.64876820
N      -5.84485243     -3.36065183      1.68222514
H       9.75983136     -1.39938701      0.95158859
H       8.91342287     -1.71321660      2.47609910
H       8.45770188     -2.60390602      1.01323312
H       8.11143924      0.40640546      1.47912226
H       6.82158957     -0.79736163      1.55649064
H       7.17493826     -1.35674313     -0.85212622
H       8.53456050     -0.25236407     -0.92637283
H       6.57538285      0.77928103     -1.93174530
H       7.11434276      1.68693838     -0.52934670
H       5.26467977      0.77135736      0.83786740
H       4.70692453      1.60956214     -0.59845198
H       4.94787737     -1.43389263     -0.33435402
H       4.37718406     -0.58753846     -1.76910693
H       2.57406821     -1.54785610     -0.32344002
H       3.06230064     -0.49720976      1.00202596
H       2.47448323      1.51405578     -0.35158340
H       2.08870053      0.48792766     -1.73604525
H       0.28536228     -0.61620790     -0.40510439
H       0.67266996      0.40532615      0.98244613
H      -0.30687016      1.39529052     -1.75137986
H       0.19280657      2.44564501     -0.43016598
H      -2.17853761      2.34601210     -0.40030916
H      -1.60289028      1.49789308      1.02711580
H      -2.47676144      0.07228347     -1.56286482
H      -1.93390908     -0.68130127     -0.07480478
H      -5.02880395      0.50100378     -1.67835336
H      -4.16393579      1.93600267     -1.16017788
H      -5.58916415      2.14172212      0.86897623
H      -6.55788989      0.76750565      0.33506600
H      -7.10405787      1.98098615     -1.79684277
H      -6.16242378      3.37006540     -1.23587569
H      -7.63065119      3.50962257      0.65757741
H      -8.42883602      3.68981617     -0.75486692
H      -4.10778615     -1.75072426     -0.66225243
H      -5.48202923     -1.10835365      0.21687237
H      -2.83302340     -1.78319710      1.58478566
H      -4.29591203     -1.20183723      2.36539381
H      -4.00209416     -3.83529759      0.81620652
H      -3.98071742     -3.66215946      2.57229218
H      -6.21718312     -2.80530484      2.45275165
H      -6.10140844     -4.32751514      1.87828650
