9
Cl/C=C/CCl
Cl      2.91283898     -0.16945982      0.14173325
C       1.30064138      0.07139072     -0.38456538
C       0.24349561     -0.22181895      0.37816308
C      -1.17126459     -0.03313269     -0.05669897
Cl     -1.96914241      1.14378639      1.00484551
H       1.25064497      0.48212651     -1.38523543
H       0.39600031     -0.63139374      1.37419485
H      -1.24555123      0.33674296     -1.08379301
H      -1.71766301     -0.97824137      0.01135609
