38
CCCN1C(=O)CCC(N2C(=O)c3ccccc3C2=O)C1=O
C       4.81900785      1.81040724      0.40049486
C       3.64036686      0.88446123      0.65184934
C       3.35028904      0.00387999     -0.56623821
N       2.21506490     -0.88718697     -0.32923924
C       2.48831607     -2.11400038      0.27931360
O       3.62482412     -2.48673461      0.57138701
C       1.31126532     -3.03001156      0.52825239
C       0.04557434     -2.24675848      0.80640336
C      -0.22746893     -1.34913758     -0.38891895
N      -1.47205680     -0.59943053     -0.29152304
C      -1.84105916      0.17432226      0.77556415
O      -1.29306242      0.30929484      1.85266343
C      -3.06314744      0.87351971      0.38406971
C      -3.85841616      1.75309963      1.09200708
C      -4.97656273      2.27446732      0.43311022
C      -5.26604032      1.91161045     -0.89917272
C      -4.44221677      1.02134806     -1.59549079
C      -3.34641792      0.51885761     -0.92182931
C      -2.30679141     -0.40902324     -1.36045458
O      -2.24538999     -0.89650618     -2.47309826
C       0.93865404     -0.37645446     -0.60361315
O       0.75754590      0.76160012     -1.04344527
H       4.62129276      2.47589991     -0.44586128
H       5.00926530      2.42991972      1.28247047
H       5.72737312      1.23908709      0.18427461
H       2.75697968      1.48373506      0.90186667
H       3.85282364      0.25811047      1.52623379
H       4.23589781     -0.59391585     -0.81265160
H       3.14160905      0.63292029     -1.43982550
H       1.54212583     -3.66055135      1.39415611
H       1.19358040     -3.68216191     -0.34431255
H      -0.79328072     -2.93201840      0.97288112
H       0.18093376     -1.66468841      1.72492119
H      -0.28014571     -1.96204723     -1.29872033
H      -3.62013684      2.02856307      2.11420071
H      -5.63097074      2.97302896      0.95196351
H      -6.14028207      2.33453515     -1.39139074
H      -4.64934368      0.73795894     -2.62229783
