22
Clc1ccc2c(c1)Oc1ccc(Cl)cc1O2
Cl     -5.23245511      0.15447376     -0.77341287
C      -3.62099643      0.24927812     -0.17744673
C      -3.38815160      0.74054409      1.10875083
C      -2.08183820      0.81916030      1.59630926
C      -1.01991954      0.40564420      0.79292775
C      -1.25952122     -0.08427706     -0.49139024
C      -2.56133661     -0.16482767     -0.98280759
O      -0.24480654     -0.50190871     -1.31559288
C       1.01991888     -0.40564752     -0.79292517
C       2.08183755     -0.81916475     -1.59630642
C       3.38815236     -0.74054643     -1.10875164
C       3.62099659     -0.24927869      0.17744521
Cl      5.23245769     -0.15447451      0.77340730
C       2.56133691      0.16483036      0.98280614
C       1.25952102      0.08427771      0.49139047
O       0.24480658      0.50190998      1.31559304
H      -4.21727026      1.06249872      1.73372850
H      -1.89418370      1.20055709      2.59635332
H      -2.74191452     -0.54693548     -1.98307800
H       1.89417861     -1.20054911     -2.59635360
H       4.21727552     -1.06249927     -1.73372524
H       2.74191202      0.54693487      1.98307856
