36
C=C(C)C(=O)OCC(CC)CCCC
C       3.97236274      2.42540541     -0.90084973
C       3.11242457      1.43570966     -0.60619216
C       3.40550275      0.38753711      0.42170562
C       1.81657243      1.39437820     -1.34263970
O       1.48039685      2.19767317     -2.19969631
O       1.07872916      0.33903108     -0.91753938
C      -0.19232044      0.20407588     -1.56462182
C      -0.93548358     -1.01721055     -0.99444652
C      -0.17174158     -2.33813552     -1.24488779
C       0.04744200     -2.65539588     -2.71742435
C      -1.20233224     -0.89129031      0.52464226
C      -2.06013276      0.31942583      0.90446632
C      -2.42792454      0.29245272      2.38898459
C      -3.27243350      1.49623362      2.77549585
H       4.93138148      2.51145073     -0.40074900
H       3.74098891      3.17819209     -1.65080102
H       3.40528555     -0.60929828     -0.03148922
H       2.65768246      0.41107679      1.22142632
H       4.38658951      0.53647867      0.88571839
H      -0.04226516      0.08988256     -2.64405495
H      -0.78107735      1.11533833     -1.41034023
H      -1.90555882     -1.08494964     -1.50469088
H       0.79852452     -2.32145634     -0.73378768
H      -0.74152962     -3.16612910     -0.80437588
H       0.47016137     -3.65975018     -2.82442726
H       0.74849171     -1.95501858     -3.18016222
H      -0.89564963     -2.62435408     -3.27191918
H      -1.71500931     -1.80064104      0.86469083
H      -0.25197955     -0.84851577      1.07163980
H      -1.51784683      1.24705270      0.69176486
H      -2.97503008      0.32757726      0.30010128
H      -1.51663163      0.28112467      2.99821936
H      -2.98358705     -0.62404589      2.61861862
H      -3.52778272      1.45446718      3.83895838
H      -4.20495776      1.52164011      2.20281304
H      -2.73126185      2.42998741      2.59282674
