28
COc1ccc(NC(=O)N(C)C)cc1Cl
C       5.10150518     -1.03171624      0.82070944
O       4.45059495      0.22701511      0.71001615
C       3.10266927      0.22499557      0.46631624
C       2.31546851     -0.92413854      0.36625391
C       0.93906542     -0.82829815      0.11548082
C       0.32676165      0.41445624     -0.04717851
N      -1.05260013      0.58169769     -0.28578828
C      -1.95938858     -0.38603942     -0.65884453
O      -1.65844943     -1.52541006     -1.00496979
N      -3.28790754      0.05048656     -0.64909781
C      -3.79601980      1.07609725      0.25352782
C      -4.28563533     -0.87886694     -1.15366090
C       1.10710297      1.56796847      0.06419112
C       2.48106748      1.47326568      0.31558874
Cl      3.38012913      2.94804813      0.43437069
H       6.16623897     -0.84352723      0.98912589
H       4.72396819     -1.59629021      1.67950620
H       5.00823542     -1.60830131     -0.10549835
H       2.73370188     -1.91912623      0.48052829
H       0.36771593     -1.75124757      0.05984426
H      -1.36724562      1.52783827     -0.43451163
H      -4.26696302      0.58086038      1.10877451
H      -3.01873407      1.73812608      0.63729514
H      -4.54261425      1.67399076     -0.27710255
H      -3.88273372     -1.48067818     -1.97372313
H      -4.59442012     -1.54338899     -0.34100118
H      -5.14925173     -0.31867742     -1.52376494
H       0.65773840      2.55086031     -0.04638759
