18
O=C(O)Cc1c(Cl)ccc(Cl)c1Cl
O      -1.99164923      0.58740607     -1.57919811
C      -2.34262505     -0.07170365     -0.61489342
O      -3.64147605     -0.39638031     -0.44865145
C      -1.47664238     -0.61682023      0.49318870
C      -0.01519005     -0.23940500      0.33283863
C       0.86389968     -1.06269360     -0.39903294
Cl      0.34577683     -2.54224684     -1.13064666
C       2.20517762     -0.71030966     -0.57546760
C       2.69482165      0.47690863     -0.03842450
C       1.84193504      1.32311486      0.67012348
Cl      2.52522462      2.78515637      1.29458098
C       0.49029450      0.97647751      0.85189342
Cl     -0.56526597      2.05941383      1.71131416
H      -4.08959987      0.01168713     -1.21978433
H      -1.59410160     -1.70510855      0.52394450
H      -1.86481406     -0.26024622      1.45295523
H       2.87458014     -1.35650104     -1.13992331
H       3.73965416      0.74125068     -0.18481679
