29
CC(C)N(C(=O)CO)c1ccc(F)cc1
C      -2.21936743     -1.68716586      0.38397725
C      -1.47518974     -0.88912091     -0.69194418
C      -2.44745772     -0.23181171     -1.67449311
N      -0.51865974      0.08696139     -0.11176048
C      -0.99527192      1.14962886      0.66141789
O      -2.17290158      1.25353192      1.02390334
C      -0.03186290      2.29755285      1.00425069
O      -0.74924504      3.50048067      1.27638398
C       0.86952930     -0.17778112     -0.30707020
C       1.75888501     -0.18706159      0.77720546
C       3.11490330     -0.46101909      0.57982174
C       3.58097660     -0.73352429     -0.69965828
F       4.88015922     -0.99705871     -0.88743167
C       2.71549896     -0.74459178     -1.78531732
C       1.35921146     -0.47341306     -1.58847725
H      -1.51330992     -2.13243507      1.09315339
H      -2.79465396     -2.49934283     -0.07376158
H      -2.92192728     -1.07190629      0.95278944
H      -0.90823747     -1.63410098     -1.26390736
H      -1.90278487      0.32738758     -2.44270477
H      -3.05612180     -0.99087122     -2.17748344
H      -3.13131682      0.46374637     -1.17906730
H       0.64739296      2.50270657      0.17373271
H       0.52898157      2.04640707      1.90667219
H      -1.62959470      3.21441705      1.59600859
H       1.40627366     -0.03214582      1.79352656
H       3.80593574     -0.47633886      1.41705015
H       3.10035426     -0.95998395     -2.77721454
H       0.69980083     -0.46314716     -2.45293450
