33
C=CCC(CC=C)(C(=O)NC(N)=O)C(=O)OC
C      -1.93176585     -1.50007366     -2.38754847
C      -1.28027731     -0.37044843     -2.08341402
C       0.05250035     -0.33131670     -1.37917571
C       0.00974015      0.16455948      0.09329339
C      -0.61148022      1.58943472      0.21717243
C      -0.00180731      2.66204935     -0.65641052
C      -0.67559208      3.35540535     -1.58314026
C       1.45279641      0.17347154      0.65753357
O       1.98663622      1.19127146      1.10312511
N       2.12107328     -1.04414895      0.60833411
C       3.37098883     -1.31811523      1.08722059
N       4.22652359     -0.27608674      1.18488064
O       3.70603585     -2.45388223      1.40229007
C      -0.79162023     -0.86470188      0.89361879
O      -0.38178529     -2.00769873      1.08627738
O      -1.98761984     -0.40352248      1.33867195
C      -2.76547817     -1.36281393      2.05829169
H      -2.88341040     -1.46851647     -2.91055931
H      -1.53848734     -2.47947012     -2.13009115
H      -1.71833345      0.58046358     -2.38034208
H       0.73134799      0.29911950     -1.96842494
H       0.49637478     -1.33539209     -1.42624217
H      -0.53268128      1.93003022      1.25900248
H      -1.68867212      1.55004766      0.00718086
H       1.04732181      2.90418626     -0.49059432
H      -1.72910124      3.18297900     -1.77943059
H      -0.18020198      4.12829584     -2.16396813
H       1.54605328     -1.88284619      0.57858491
H       3.81091096      0.64027584      1.33500261
H       5.08063740     -0.46520140      1.69125370
H      -2.23478879     -1.68754132      2.95865109
H      -3.69996664     -0.88227145      2.36058264
H      -3.00587134     -2.21754180      1.41837364
