41
N#CC(CCc1ccc(Cl)cc1)(Cn1cncn1)c1ccccc1
N      -1.12039189     -0.34596563      3.73493933
C      -1.10877148     -0.14592899      2.59149522
C      -1.11627900      0.14093676      1.12594402
C       0.34582440      0.54714871      0.74920327
C       1.40071643     -0.54789847      0.99685140
C       2.77159360     -0.09289824      0.55597152
C       3.61194432      0.59147770      1.44533691
C       4.87183589      1.02941542      1.03145048
C       5.29428072      0.78841904     -0.27387510
Cl      6.84633072      1.32863611     -0.78387579
C       4.46750753      0.11408690     -1.16960594
C       3.20758998     -0.32424309     -0.75630453
C      -2.08953565      1.34446878      0.95691066
N      -2.21552176      1.86726470     -0.38433596
C      -3.18669794      1.60668263     -1.29986830
N      -2.96943882      2.31947606     -2.38097341
C      -1.84732515      3.02869027     -2.06225997
N      -1.35021010      2.78692134     -0.84607738
C      -1.66318910     -1.05663414      0.31517799
C      -1.29385138     -1.26464219     -1.02828707
C      -1.82343772     -2.32288582     -1.77183652
C      -2.74015648     -3.19379208     -1.19460827
C      -3.13436669     -3.00305500      0.12464426
C      -2.60874912     -1.94368602      0.86974236
H       0.62984759      1.43682134      1.33099145
H       0.40615932      0.85875374     -0.29965433
H       1.14638438     -1.47121391      0.46433729
H       1.44468329     -0.81661835      2.05897867
H       3.29150353      0.78731926      2.46666509
H       5.51569841      1.55687528      1.72998612
H       4.79625771     -0.07218248     -2.18836006
H       2.56953505     -0.84760852     -1.46509440
H      -1.77945051      2.18699969      1.59121700
H      -3.10356821      1.07564833      1.28541674
H      -3.99719654      0.90864328     -1.13958802
H      -1.38163993      3.73931109     -2.73342010
H      -0.59890199     -0.60005686     -1.53818048
H      -1.52280247     -2.46128582     -2.80810131
H      -3.15062926     -4.01691868     -1.77403822
H      -3.85500025     -3.68035455      0.57773241
H      -2.96058140     -1.83612759      1.89535300
