18
Clc1cc2c(Cl)ccc(Cl)c2cc1Cl
Cl      3.48060369      2.23692452     -0.69826299
C       2.22886442      1.08389260     -0.40277629
C       0.91622801      1.55455851     -0.30675387
C      -0.17841251      0.68676018     -0.06623572
C      -1.51903220      1.14256696      0.03499125
Cl     -1.93844726      2.81707120     -0.12836773
C      -2.57352925      0.25895367      0.27275878
C      -2.32043551     -1.09882496      0.41554303
C      -1.01210267     -1.57694361      0.32099916
Cl     -0.80059391     -3.28712760      0.51359515
C       0.08074388     -0.70352097      0.07998302
C       1.42101674     -1.15345510     -0.02195786
C       2.48224432     -0.27540479     -0.25983011
Cl      4.07291849     -0.94063766     -0.36408765
H       0.75011577      2.62472273     -0.42327183
H      -3.59526010      0.62461115      0.34758079
H      -3.14672855     -1.78162588      0.60064145
H       1.65180665     -2.21252096      0.08545141
