31
Nc1nc([O-])c2ncn(COC(CO)CO)c2n1.[Na+]
N       2.96509719     -2.47629017      0.55474512
C       2.67963175     -1.38942106     -0.26483161
N       3.50611841     -1.21901228     -1.30393669
C       3.34708229     -0.14494226     -2.12838705
O       4.12341065      0.05511531     -3.10917543
C       2.29451433      0.75108019     -1.84598944
N       1.81849242      1.92133446     -2.43349460
C       0.79890547      2.29373729     -1.69552894
N       0.59751068      1.44327482     -0.64808714
C      -0.40036896      1.59644918      0.38149274
O      -1.63114119      1.07270138     -0.11172367
C      -2.31006747      0.20247895      0.81337608
C      -1.67996291     -1.20045031      0.83540582
O      -0.54917968     -1.22187227      1.70668915
C      -3.76250516      0.12838712      0.32429758
O      -3.83481985     -0.40269004     -0.99733986
C       1.52827080      0.44708403     -0.72440090
N       1.66529912     -0.59323287      0.11948554
Na      0.00000000      0.00000000      0.00000000
H       2.83496490     -2.18254829      1.51041871
H       3.91293141     -2.72905766      0.29101476
H       0.18318863      3.16401241     -1.87485984
H      -0.04844680      1.13021198      1.30516322
H      -0.53040730      2.66727282      0.57067426
H      -2.29449102      0.65671511      1.81190210
H      -2.38760402     -1.93497831      1.23195356
H      -1.36154337     -1.52018516     -0.16271165
H       0.24835674     -1.20274047      1.12791576
H      -4.20410991      1.13006548      0.29374330
H      -4.37244449     -0.49846797      0.98178067
H      -3.13668265      0.05596859     -1.50727074
