35
CC1(O)CCC(C(C)(C)O)CC1.O
C       2.71237080      0.98524431     -0.78132874
C       2.34090869     -0.24550313      0.05136421
O       3.57197022     -0.91330496      0.34694054
C       1.44441645     -1.21090215     -0.73613488
C       0.01942459     -0.68993583     -0.92831053
C      -0.64155404     -0.31571458      0.41219535
C      -2.11441145      0.18026969      0.27109176
C      -3.02143430     -0.89274168     -0.34651766
C      -2.25827518      1.48087541     -0.52516258
O      -2.62583046      0.44985533      1.58426572
C       0.24890235      0.67856000      1.19021505
C       1.67027654      0.14711712      1.37502944
O      -0.03608032      0.39617565      0.00000000
H       1.84260976      1.57954852     -1.07393629
H       3.39817506      1.63484152     -0.22498575
H       3.24467648      0.68832684     -1.69256534
H       3.37173086     -1.69209364      0.89349087
H       1.40264617     -2.17662306     -0.21403781
H       1.89399768     -1.43250283     -1.71239770
H      -0.55981754     -1.47048614     -1.43314512
H       0.03744296      0.17368009     -1.60153508
H      -0.67448168     -1.22953809      1.02491232
H      -4.07523534     -0.59884493     -0.27316963
H      -2.92946088     -1.84081198      0.19543064
H      -2.79295340     -1.07109355     -1.40143817
H      -1.90791793      1.37625791     -1.55592540
H      -3.30838170      1.79605720     -0.55792117
H      -1.71830525      2.30650936     -0.05104642
H      -2.60647870     -0.37980035      2.09127706
H      -0.17867372      0.87330081      2.18062959
H       0.29174257      1.64256141      0.67259861
H       2.28076337      0.89159486      1.90158114
H       1.64115701     -0.72470349      2.04271089
H      -0.74228104     -0.26733111      0.00000000
H       0.77836136     -0.12884454      0.00000000
