22
CCOC(C)OCC
C       2.64856650     -1.76460997      0.19764763
C       1.87792995     -0.70767869     -0.56900888
O       0.85245591     -0.20037896      0.27825068
C       0.05483414      0.80122848     -0.34799376
C       0.71646257      2.16404590     -0.19113121
O      -1.22352951      0.88743302      0.28484385
C      -1.98729395     -0.30312628      0.11749604
C      -3.34409128     -0.09271793      0.76071725
H       3.44728153     -2.18833404     -0.41751843
H       1.98173849     -2.57245150      0.51686270
H       3.08938759     -1.33803059      1.10474536
H       2.55683101      0.09607379     -0.87024956
H       1.43086096     -1.15446939     -1.46381738
H      -0.09492985      0.58085117     -1.41282652
H       0.88756997      2.38743771      0.86810182
H       0.07705574      2.95637566     -0.59370284
H       1.68685738      2.20375950     -0.69373514
H      -1.48117848     -1.14725530      0.59774495
H      -2.11332495     -0.51880943     -0.94919706
H      -3.23433260      0.13835277      1.82546363
H      -3.86080506      0.75673742      0.30185796
H      -3.96834605     -0.98443334      0.65544890
