43
Cc1cn(C2CC(N=[N+]=[N-])C(COC(=O)c3ccncc3)O2)c(=O)[nH]c1=O
C      -4.48788307      2.75007492      2.10234648
C      -4.35573259      1.35012393      1.60265967
C      -3.18897420      0.72746811      1.39391644
N      -3.11140956     -0.57632259      0.94273399
C      -1.82903443     -1.22707882      0.69834432
C      -1.44010216     -1.23858028     -0.77871627
C       0.07156276     -1.26551585     -0.71513731
N       0.49529885     -2.65158558     -0.44977561
N       1.48547625     -3.05491221     -1.08579430
N       2.39970571     -3.41103034     -1.66267121
C       0.31918876     -0.34695465      0.48324131
C       1.66777506     -0.50536737      1.18292715
O       2.77251352     -0.44646469      0.26556232
C       3.11376646      0.79223688     -0.16416354
O       2.53627749      1.82794399      0.12157512
C       4.28595106      0.72971381     -1.07342177
C       4.94028555     -0.46633438     -1.37268869
C       6.01856663     -0.41538530     -2.23832810
N       6.47003507      0.72096669     -2.80789454
C       5.82334195      1.86396639     -2.49661141
C       4.73780147      1.92141775     -1.64306015
O      -0.76191568     -0.56793955      1.41033719
C      -4.25173693     -1.31144282      0.64835047
O      -4.23653047     -2.45687195      0.20194935
N      -5.44269378     -0.67601004      0.87333651
C      -5.60292745      0.60175874      1.32261156
O      -6.71061199      1.10528335      1.47432337
H      -3.51391313      3.19659610      2.32362960
H      -4.98531123      3.37875341      1.35694546
H      -5.07781259      2.77422730      3.02500761
H      -2.24970660      1.24021859      1.58408415
H      -1.87762827     -2.25327028      1.08481822
H      -1.77062871     -0.31441793     -1.27027903
H      -1.88064576     -2.08097083     -1.32189270
H       0.52705750     -0.87731894     -1.63400357
H       0.21412274      0.68905141      0.13790015
H       1.78618419      0.24238047      1.97788183
H       1.71844859     -1.47371578      1.69403510
H       4.63398187     -1.41751425     -0.95318018
H       6.56456709     -1.31576710     -2.50612451
H       6.21530463      2.76210729     -2.96628089
H       4.25749186      2.87125672     -1.42976196
H      -6.27950646     -1.19477428      0.66126836
