17
COC(OC)OC
C       0.08149775      2.27100943     -0.58724862
O      -0.60691295      1.04541347     -0.77814382
C      -0.00538666     -0.02413473     -0.05152600
O       1.30914637     -0.26670832     -0.54841877
C       1.99373311     -1.24661474      0.21549244
O      -0.79693135     -1.20305988     -0.18318044
C      -2.08077142     -1.04922492      0.40036504
H       0.11643339      2.53525780      0.47419831
H       1.09438587      2.22040790     -0.99752335
H      -0.46344724      3.05541791     -1.11976993
H       0.05616110      0.25167455      1.01046313
H       3.00916562     -1.33969155     -0.17956937
H       1.50450656     -2.22158750      0.13234420
H       2.05861685     -0.94462811      1.26540266
H      -2.66365058     -0.28901971     -0.12799832
H      -2.60977351     -2.00277594      0.31828144
H      -1.99677290     -0.79173566      1.46072408
