27
Nc1ccc(/N=N/c2ccccc2)c(N)n1
N       5.24125223      0.53630789     -1.09184908
C       3.91644205      0.48947015     -0.66417908
C       3.23742139      1.65992280     -0.35862270
C       1.90859684      1.57721711      0.04732909
C       1.28781450      0.33153079      0.12285318
N      -0.04977396      0.24205198      0.55312910
N      -0.80547631      0.05698456     -0.42705000
C      -2.14688097     -0.05726077     -0.01419932
C      -3.11355777      0.75272073     -0.61987644
C      -4.45963015      0.64663016     -0.26136882
C      -4.85225878     -0.28064117      0.70261188
C      -3.90215567     -1.10352033      1.30510625
C      -2.55712187     -0.99523379      0.94424221
C       2.05640901     -0.79670013     -0.21265972
N       1.52977825     -2.09186168     -0.11066516
N       3.34868745     -0.72669593     -0.60066494
H       5.82832137      1.03510989     -0.43361390
H       5.54715581     -0.42636694     -1.21305330
H       3.72843736      2.62313623     -0.44156935
H       1.35391175      2.47621910      0.29748519
H      -2.81221523      1.47365318     -1.37542081
H      -5.19978159      1.28589534     -0.73562501
H      -5.89950613     -0.36405271      0.98251205
H      -4.20600228     -1.83025348      2.05406208
H      -1.82123429     -1.64399524      1.41326727
H       0.62608588     -2.13951589     -0.57116318
H       2.21528111     -2.73075187     -0.50164103
