30
COCCOCCOCCOC
C      -4.43141597      2.71536664      1.55455846
O      -4.06387940      1.38303916      1.88713692
C      -3.21383132      0.80986662      0.89419156
C      -2.87842904     -0.62806286      1.28618065
O      -2.06174979     -1.27576120      0.30966242
C      -0.67393706     -0.97478779      0.45622629
C       0.12204154     -1.76263156     -0.58379521
O       1.52862073     -1.54671265     -0.46404045
C       1.96357360     -0.34883838     -1.10691797
C       3.47819854     -0.22826389     -0.97537694
O       3.91228352      0.97683966     -1.60490870
C       5.32353212      1.12734208     -1.52084553
H      -4.98418574      2.73573059      0.61038626
H      -3.54383019      3.35170508      1.48605888
H      -5.07833154      3.10238829      2.34645748
H      -3.71326413      0.81900984     -0.08205600
H      -2.29995445      1.40726366      0.80740325
H      -2.41590085     -0.67309532      2.27977123
H      -3.81056946     -1.19968974      1.36142299
H      -0.50847816      0.09890521      0.32738542
H      -0.33193184     -1.24763718      1.46158944
H      -0.05742323     -2.83283909     -0.42891332
H      -0.22496586     -1.54276144     -1.60089433
H       1.68701559     -0.36825891     -2.16785757
H       1.48590069      0.52616490     -0.65320426
H       3.96164405     -1.09402421     -1.44364537
H       3.75985652     -0.22040669      0.08442996
H       5.59975249      2.06249358     -2.01505349
H       5.82777797      0.30062841     -2.03033460
H       5.64188066      1.17689729     -0.47501747
