16
C#CCCCC
C       3.62587460      0.00797008      0.04311883
C       2.49976662     -0.39813751      0.13782229
C       1.12231109     -0.89929583      0.25453175
C       0.10755948      0.22475102      0.04635678
C      -1.32653121     -0.29063071      0.16660793
C      -2.33880515      0.82482963     -0.03990801
H       4.62516110      0.36857754     -0.04096584
H       0.98035906     -1.34988342      1.24378099
H       0.95777095     -1.69064500     -0.48606713
H       0.25389484      0.67849461     -0.94238417
H       0.27645317      1.01880646      0.78517803
H      -1.50281771     -1.07790082     -0.57557162
H      -1.48020606     -0.73678586      1.15606809
H      -2.23318982      1.27143120     -1.03375221
H      -3.35714637      0.43400568      0.05037765
H      -2.21045457      1.61441295      0.70736582
