45
CC(C)(C1CCC(O)CC1)C1CCC(O)CC1
C      -0.23109822     -2.38649885      0.15045696
C      -0.04768015     -1.00135756     -0.52056767
C       0.05752852     -1.25869986     -2.04544041
C      -1.30412216     -0.07389177     -0.22819914
C      -2.65234512     -0.61541832     -0.74982246
C      -3.77085120      0.43019262     -0.65869278
C      -3.58462698      1.42735707      0.48523225
O      -4.85343765      1.89903460      0.92339166
C      -2.85719804      0.78747893      1.65690191
C      -1.45544019      0.30948935      1.26856078
C       1.28507009     -0.32629036      0.02014598
C       2.56766643     -1.16296628     -0.17469888
C       3.76397595     -0.57446027      0.58370128
C       3.69754418      0.94418711      0.74764341
O       5.01417755      1.47688323      0.83163478
C       2.97041874      1.59013579     -0.42087716
C       1.52277703      1.10448676     -0.53351280
H       0.52003220     -3.10458560     -0.19546732
H      -0.14818661     -2.32687440      1.23974117
H      -1.20131928     -2.83168806     -0.08919709
H       0.02177297     -0.32840707     -2.62011018
H       0.98164036     -1.78164910     -2.30906712
H      -0.75813585     -1.89563011     -2.40393735
H      -1.13441001      0.86217400     -0.77934704
H      -2.58693666     -0.94410517     -1.79077391
H      -2.95193370     -1.49097831     -0.16149874
H      -3.82187893      0.99359757     -1.59939504
H      -4.73734376     -0.08323869     -0.57752326
H      -3.01405770      2.29663721      0.13647092
H      -5.29651064      2.30067921      0.15643568
H      -3.44648274     -0.06126730      2.02960173
H      -2.79608545      1.48565737      2.50066840
H      -1.19533717     -0.52603044      1.92583128
H      -0.74522077      1.11114374      1.50202967
H       1.16457579     -0.22877369      1.10861153
H       2.43738984     -2.19649028      0.15808764
H       2.82355921     -1.20523027     -1.24016438
H       3.82037178     -1.02479225      1.58318529
H       4.69176699     -0.87399822      0.07992827
H       3.18048047      1.19888636      1.68070523
H       5.45587560      1.04670056      1.58376532
H       2.99459732      2.68324776     -0.33341511
H       3.50859774      1.36533968     -1.35166247
H       0.88415807      1.80669111      0.01479615
H       1.22666216      1.18332221     -1.58415697
