26
COC(=O)c1ccc(N(C)C)cc1
C       5.00632807      0.45673602      0.61105050
O       3.60165058      0.57609036      0.38282682
C       2.90672523     -0.56463985      0.62169380
O       3.38258483     -1.62380829      0.99980566
C       1.45630237     -0.36106264      0.36119703
C       0.92883144      0.85584878     -0.06915288
C      -0.45016282      0.98783521     -0.29898852
C      -1.35427458     -0.07249311     -0.10228355
N      -2.72460662      0.06435206     -0.35100672
C      -3.29574937      1.40608085     -0.45924759
C      -3.64089238     -0.97478672      0.11658284
C      -0.78708884     -1.28984491      0.31619818
C       0.58881613     -1.43635726      0.55034637
H       5.44073414     -0.29533001     -0.05506948
H       5.20507595      0.20934287      1.65857790
H       5.46850524      1.42282029      0.39008191
H       1.57057432      1.71665924     -0.23817974
H      -0.79475007      1.95743586     -0.64623420
H      -3.12967718      1.98004439      0.45911965
H      -4.37719163      1.36614683     -0.63202389
H      -2.87612824      1.94764916     -1.31371445
H      -4.67723410     -0.74146440     -0.15272848
H      -3.42008088     -1.93917421     -0.35337466
H      -3.59743444     -1.07651626      1.20657538
H      -1.40297567     -2.17046494      0.47254688
H       0.97211850     -2.40109929      0.87733817
