44
COc1ccc2cc(C(C)C(=O)OCC(=O)N(C)C)ccc2c1
C      -7.31839607      2.07507839      0.23652616
O      -6.58697095      1.43401473     -0.80070410
C      -5.32252632      1.01052351     -0.49442105
C      -4.68605623      1.15360212      0.73621611
C      -3.38448955      0.67123416      0.91348567
C      -2.69938701      0.03807219     -0.13486999
C      -1.39235311     -0.45274616      0.03143110
C      -0.70646666     -1.08428747     -1.01957140
C       0.70413685     -1.62823468     -0.84299229
C       0.77857165     -2.68133998      0.26327484
C       1.74146379     -0.54470384     -0.57296765
O       1.55584648      0.49513862      0.04638635
O       2.94616582     -0.91944769     -1.10166150
C       4.02886818     -0.06077191     -0.73722452
C       4.49307549     -0.28419202      0.71112394
O       4.05094425     -1.22578326      1.37536393
N       5.44653682      0.59917493      1.21899970
C       5.84338235      1.82576279      0.54644809
C       5.77637897      0.50846507      2.63224404
C      -1.35515838     -1.21619871     -2.25456758
C      -2.65472547     -0.73437478     -2.43339463
C      -3.33933766     -0.10636637     -1.38282043
C      -4.64633016      0.38318539     -1.54507727
H      -7.48157642      1.39797904      1.08151667
H      -8.29905859      2.34741149     -0.16535244
H      -6.82263173      2.99718539      0.55752790
H      -5.16894640      1.63470518      1.57975646
H      -2.90572582      0.79542146      1.88263670
H      -0.89730548     -0.32803897      0.99391876
H       0.98997630     -2.11384645     -1.78633863
H       1.77576064     -3.13441727      0.29969018
H       0.58637035     -2.24958583      1.25195361
H       0.04977809     -3.48188708      0.09596338
H       3.75090212      0.98482607     -0.90765549
H       4.86634089     -0.30552584     -1.39889080
H       5.12849975      2.61262133      0.80392509
H       5.86327938      1.69649267     -0.53761448
H       6.84607578      2.11531920      0.87442124
H       5.18390099      1.25003415      3.17688569
H       5.56192006     -0.48376963      3.03837723
H       6.84180853      0.71735367      2.76738093
H      -0.85859370     -1.69985823     -3.09316675
H      -3.13140754     -0.85405011     -3.40391073
H      -5.15254027      0.27842348     -2.50225203
