15
FC(F)(F)c1cccc(Cl)c1
F      -2.95487306      0.69856176      0.26844385
C      -2.18882732     -0.38660414     -0.03324840
F      -2.56038842     -1.35890435      0.84508812
F      -2.60353673     -0.80935407     -1.25858796
C      -0.70910309     -0.09568117      0.00069810
C      -0.22549957      1.19518870     -0.26835580
C       1.14618953      1.45680445     -0.25728450
C       2.04968045      0.43015773      0.01602407
C       1.57896034     -0.85528831      0.27514496
Cl      2.69419648     -2.12246637      0.60678783
C       0.21041186     -1.12348258      0.26590380
H      -0.92027652      2.00585051     -0.48704080
H       1.51092182      2.46063893     -0.46335346
H       3.11666172      0.63770431      0.02313009
H      -0.14451748     -2.13312540      0.46665010
