15
CCCCS
C      -2.07092452      0.54761690     -0.31549482
C      -0.94349859     -0.40176622      0.05777578
C       0.42740036      0.22257180     -0.20957436
C       1.54857962     -0.74090194      0.16960669
S       3.17224809      0.00408954     -0.15570177
H      -2.01324756      1.47314888      0.26621508
H      -2.03025535      0.80633540     -1.37838282
H      -3.04078500      0.08113025     -0.11632059
H      -1.03205886     -0.66568461      1.11810710
H      -1.04905162     -1.32892478     -0.51757668
H       0.51778600      1.15214756      0.36658115
H       0.50141434      0.48743105     -1.27194941
H       1.47242117     -1.66670957     -0.40948592
H       1.49275973     -0.99965858      1.23180433
H       3.04721219      1.02917431      0.70005767
