28
Nc1ccc(S(=O)(=O)Nc2ccccn2)cc1
N      -3.32767482     -2.47905269     -0.74081724
C      -2.65514099     -1.32585396     -0.32084395
C      -2.34431857     -1.14664295      1.03127504
C      -1.57039192     -0.06108198      1.44976043
C      -1.05783392      0.82272187      0.49803664
S      -0.08328218      2.21232748      1.03175429
O       0.02034596      3.13950573     -0.07636194
O      -0.61547220      2.64141871      2.30869629
N       1.43076273      1.54755526      1.33939745
C       2.02454801      0.81836938      0.29407337
C       2.44202226      1.39288379     -0.89356101
C       2.98536423      0.55597538     -1.86249316
C       3.08855891     -0.80708538     -1.60316926
C       2.64748371     -1.27772206     -0.37563647
N       2.11946669     -0.48973095      0.58650730
C      -1.32366795      0.63553437     -0.85976990
C      -2.09917032     -0.45445926     -1.26328533
H      -3.94896789     -2.87045786     -0.03946497
H      -3.78149738     -2.38403231     -1.64410832
H      -2.70877643     -1.85231447      1.77360580
H      -1.36536772      0.07749093      2.50834594
H       1.42460097      1.00201375      2.19830448
H       2.35343314      2.45979267     -1.06573116
H       3.32483669      0.96396714     -2.81049212
H       3.50512394     -1.48672168     -2.33878634
H       2.70854839     -2.33407077     -0.12816068
H      -0.92312068      1.31579254     -1.60740496
H      -2.27041265     -0.61612269     -2.32452728
