24
OCC1OC(O)(CO)C(O)C1O
O       3.27616051     -0.83681542      0.52398455
C       2.47198778      0.03007280     -0.27418543
C       1.02204678     -0.44022246     -0.26161624
O       0.18110666      0.45948271     -0.99872009
C      -1.00825094      0.68719380     -0.21454496
O      -0.87506556      1.98432652      0.36901454
C      -2.25682737      0.65815026     -1.11088450
O      -2.29734689      1.85666701     -1.90784272
C      -1.02761599     -0.37839515      0.89180654
O      -1.56774773     -1.63435231      0.45388863
C       0.45861249     -0.53178649      1.15473306
O       0.75227514     -1.77658621      1.78683154
H       4.19514473     -0.52686261      0.42500355
H       2.85896547      0.03563150     -1.29883975
H       2.55600012      1.05095930      0.11434438
H       0.97225017     -1.42527545     -0.74394257
H      -1.17372817      2.57566433     -0.35317653
H      -3.17028987      0.64853403     -0.50834131
H      -2.24241199     -0.20213688     -1.78732249
H      -2.98920426      1.71452316     -2.57786235
H      -1.57529795     -0.06881175      1.78726962
H      -1.10940548     -2.30248560      1.00730373
H       0.82059391      0.28796176      1.78694859
H       1.72804842     -1.86543683      1.73615020
