68
CCCCCCCCCCCCCCCCCCCCCC(=O)[O-].[Ag+]
C       8.45115028      3.27936095     -1.00348583
C       7.74047789      2.85609578      0.27979179
C       6.89939045      1.63236125     -0.10002790
C       6.17494035      1.17492274      1.13990765
C       5.32633953     -0.03003862      0.85959028
C       4.27495279      0.19690842     -0.17331467
C       3.42771679     -1.03465732     -0.44306370
C       2.70352115     -1.51385016      0.77137367
C       1.89181247     -2.74540981      0.44648251
C       0.88497575     -2.44075876     -0.62260549
C      -0.04297797     -1.33331049     -0.22354130
C      -0.81251981     -1.66519472      1.00555554
C      -1.62502280     -2.88719150      0.84210524
C      -2.61960078     -3.01014838     -0.22858734
C      -3.75771451     -2.07607926     -0.28758604
C      -3.51200420     -0.64238410     -0.52387655
C      -4.82818098      0.17274278     -0.60957983
C      -5.63556986      0.11447443      0.62899923
C      -6.91271742      0.83776685      0.68732105
C      -6.99321341      2.29496194      0.56431481
C      -6.53289528      2.97613009     -0.66070489
C      -7.19901846      2.52661973     -1.90925776
O      -8.07755253      1.65106329     -1.96272343
O      -6.80447223      3.13431121     -3.09397024
Ag      0.00000000      0.00000000      0.00000000
H       9.25512427      4.00758803     -0.81473963
H       8.79852287      2.35035457     -1.50336170
H       7.63935310      3.69556581     -1.66044794
H       7.04870811      3.67516354      0.55617169
H       8.45205678      2.58474874      1.07669306
H       7.54858803      0.81329438     -0.45271280
H       6.18452562      1.91564460     -0.90572783
H       5.59276802      2.01123169      1.59326080
H       6.97075663      0.84483324      1.86176884
H       6.01224524     -0.83795169      0.51282996
H       4.84869225     -0.31426601      1.83801047
H       4.73632760      0.52592147     -1.12657180
H       3.61069549      1.04370256      0.14225558
H       2.66321240     -0.72264397     -1.21217830
H       4.05167941     -1.81262883     -0.90466141
H       3.41045796     -1.71203582      1.61845891
H       1.99375008     -0.75170902      1.17237150
H       2.58801880     -3.56970472      0.07721233
H       1.42848339     -3.15568078      1.35288012
H       1.41626668     -2.21451863     -1.58559674
H       0.29325845     -3.37028528     -0.89203902
H      -0.72863344     -1.16371922     -1.10172413
H       0.49430119     -0.36522874     -0.11816000
H      -1.28176830     -0.78531620      1.44108872
H      -0.00668795     -1.91817163      1.79694910
H      -2.08849345     -3.12446565      1.85357835
H      -0.89739940     -3.76356392      0.70643185
H      -2.99532906     -4.10022673     -0.17198408
H      -2.07929666     -3.05380831     -1.23769101
H      -4.45816246     -2.23911266      0.59978168
H      -4.41789180     -2.44103584     -1.14678108
H      -2.85148830     -0.10328971      0.14331479
H      -3.10809262     -0.54120771     -1.58748957
H      -4.48243636      1.20312942     -0.79287385
H      -5.34181820     -0.26586336     -1.49585260
H      -5.01992235      0.31052778      1.55292792
H      -5.90325353     -0.99079228      0.76728504
H      -7.62773847      0.29771617     -0.00752061
H      -7.37163994      0.57800497      1.70876940
H      -8.02250907      2.69396802      0.83261413
H      -6.36390327      2.73040262      1.41389480
H      -5.46510774      3.16713927     -0.73303764
H      -6.94803722      4.06279429     -0.55051407
