30
Cn1nc(S(N)(=O)=O)sc1=NS(=O)(=O)c1ccc(I)cc1
C      -1.51045706      1.37758944     -1.86588482
N      -1.77766608      0.99177874     -0.49160484
N      -3.01297484      1.37633080     -0.00893626
C      -3.10204154      1.05204410      1.25050535
S      -4.58268703      1.42329157      2.16159656
N      -5.90070058      1.21861409      1.11559153
O      -4.74716986      0.42368157      3.19428174
O      -4.55065009      2.83758481      2.46383646
S      -1.70754109      0.26970377      1.96593415
C      -0.89846160      0.37952430      0.38551087
N       0.28054465     -0.11186877      0.38909443
S       1.19861321     -0.14889346     -0.92059680
O       1.57356971      1.20134396     -1.28993421
O       0.60489428     -1.03308586     -1.90299855
C       2.68377479     -0.94807366     -0.34009555
C       3.69887526     -0.17714875      0.23748870
C       4.86899194     -0.79828726      0.67793619
C       5.01786662     -2.17991522      0.53190404
I       6.76006979     -3.10162884      1.18952155
C       4.00729812     -2.94675146     -0.05289908
C       2.83475894     -2.32943521     -0.49443925
H      -1.26479517      0.50775776     -2.47834908
H      -2.39285782      1.84238438     -2.32278862
H      -0.70395762      2.11346892     -1.91341239
H      -6.71454829      0.92219165      1.65503822
H      -6.07291933      2.08564583      0.60164564
H       3.58614086      0.89929763      0.34680819
H       5.65356920     -0.19576963      1.12861383
H       4.11972327     -4.02208962     -0.17005425
H       2.05073737     -2.92928557     -0.95062927
