23
Clc1cc(Cl)cc(Oc2ccc(Cl)cc2Cl)c1
Cl     -4.55627420     -2.26431156      0.79771268
C      -3.35333681     -1.14135898      0.29515866
C      -3.66331244      0.21478935      0.22198029
C      -2.68530978      1.11546602     -0.19480517
Cl     -3.06256326      2.79109641     -0.30316895
C      -1.40507103      0.67493190     -0.52849152
C      -1.10008662     -0.68469809     -0.42805567
O       0.12849266     -1.20649449     -0.76768754
C       1.24070759     -0.51780309     -0.33701555
C       1.45895935     -0.30610350      1.02932128
C       2.61180993      0.35757351      1.45248160
C       3.54697631      0.79187132      0.51254282
Cl      4.96613439      1.60885064      1.04034314
C       3.34650236      0.56558620     -0.84817572
C       2.19426042     -0.09774811     -1.27202664
Cl      1.96979363     -0.36557665     -2.96181347
C      -2.07864315     -1.59809343     -0.03462221
H      -4.65903845      0.56529532      0.47919629
H      -0.66192224      1.38754069     -0.87469238
H       0.74193991     -0.66075429      1.76538713
H       2.77833785      0.52671958      2.51373906
H       4.08378231      0.90097476     -1.57255623
H      -1.84213874     -2.65775352      0.01524809
