50
CCCCOC1=CC(=O)C2(Oc3c(Cl)c(OC)cc(OC)c3C2=O)C(C)C1
C       7.17423811      0.96179945      2.27800530
C       5.74931714      0.77496276      1.78199513
C       5.61853959     -0.48224306      0.91881713
C       4.18954948     -0.69456297      0.42221308
O       3.83553757      0.38822801     -0.44602783
C       2.47561166      0.45549096     -0.69376085
C       1.83368509      1.60289302     -0.44586675
C       0.38173349      1.73605008     -0.71049796
O      -0.15948099      2.81854219     -0.48426077
C      -0.38269241      0.50198734     -1.19769192
O      -1.50951434      0.93800397     -2.00471705
C      -2.64684745      0.64243890     -1.29328865
C      -3.93237068      0.96563361     -1.69639836
Cl     -4.17837623      1.79935566     -3.18924229
C      -5.01369639      0.60000755     -0.87202416
O      -6.26492708      0.94241611     -1.32037261
C      -7.36107874      0.78359671     -0.42876808
C      -4.77104352     -0.09905555      0.33151784
C      -3.46795905     -0.43123400      0.72626499
O      -3.12899678     -1.10646002      1.85917040
C      -4.17462090     -1.50883148      2.73339855
C      -2.43628362     -0.03953584     -0.11211623
C      -1.00419480     -0.21684168     -0.01554073
O      -0.41723653     -0.82759857      0.85991564
C       0.52545847     -0.38708521     -2.06771403
C      -0.16514270     -1.65590786     -2.57946952
C       1.83161646     -0.74288090     -1.34100541
H       7.87027375      1.06815403      1.43970965
H       7.49419319      0.10865825      2.88445152
H       7.24618698      1.86314042      2.89414606
H       5.07448727      0.70263989      2.64307430
H       5.45222955      1.66159703      1.20994580
H       5.93126594     -1.36007611      1.49591574
H       6.29136487     -0.39326978      0.05697250
H       4.14308495     -1.63707920     -0.13603027
H       3.50181792     -0.74780016      1.27597424
H       2.33439268      2.46603881     -0.02521689
H      -7.19715583      1.33270670      0.50451164
H      -8.24853729      1.20474817     -0.91108831
H      -7.55844027     -0.27616140     -0.23685722
H      -5.60703652     -0.39053917      0.95646886
H      -3.72024749     -2.03022207      3.58131101
H      -4.71587219     -0.64161567      3.12552316
H      -4.85476655     -2.20842877      2.23707469
H       0.79055067      0.19502500     -2.96363508
H      -1.06482053     -1.41399659     -3.15385109
H       0.50532348     -2.21585319     -3.24057947
H      -0.45198876     -2.32062181     -1.75837148
H       1.65467519     -1.51347736     -0.58192958
H       2.52819417     -1.17273621     -2.07199847
