50
O=C1CCCCCN1C(=O)c1cccc(C(=O)N2CCCCCC2=O)c1
O       2.57903378      1.57728180      0.69130198
C       3.61750693      0.91836420      0.75035047
C       4.94317881      1.65546327      0.68005792
C       5.67507494      1.38871552     -0.62922731
C       6.50097566      0.10682287     -0.61358618
C       5.68144108     -1.16227619     -0.39617687
C       4.94064055     -1.17288778      0.94040334
N       3.66102630     -0.46556719      0.90656648
C       2.55742170     -1.27075293      0.57461897
O       2.67642343     -2.33343415     -0.03809535
C       1.18713157     -0.86512896      0.98667271
C       0.94459465     -0.29883246      2.24510138
C      -0.36068473      0.00752909      2.63426873
C      -1.42863662     -0.26397736      1.77610170
C      -1.19314140     -0.83713155      0.51816702
C      -2.31663550     -1.20320484     -0.39540351
O      -2.18122087     -2.18523036     -1.12601808
N      -3.49659007     -0.44463288     -0.35171097
C      -4.68045085     -1.18376649     -0.80017517
C      -5.99646070     -0.75427830     -0.16407398
C      -6.67640873      0.39021201     -0.90731717
C      -5.72140863      1.47373657     -1.39231485
C      -4.63903940      1.78678512     -0.37651851
C      -3.38784307      0.93293140     -0.50690324
O      -2.30929353      1.51162199     -0.66411590
C       0.11502430     -1.15715859      0.13460754
H       4.71173934      2.72744751      0.73380015
H       5.55619028      1.43844095      1.56042181
H       4.96669029      1.36127487     -1.46678029
H       6.35885054      2.22484073     -0.82139133
H       7.03258699      0.02039291     -1.56936273
H       7.27307549      0.18024991      0.16264820
H       6.37696599     -2.01045802     -0.41167265
H       4.98548484     -1.30692394     -1.23097921
H       5.56174671     -0.74819278      1.73682773
H       4.75466015     -2.21484369      1.23135899
H       1.76417449     -0.09183983      2.92726314
H      -0.54509249      0.45569292      3.60724014
H      -2.43782412     -0.03271447      2.10424170
H      -4.72771424     -1.13172450     -1.89515174
H      -4.53403599     -2.24128848     -0.54288229
H      -5.83935327     -0.48918665      0.88840480
H      -6.68970742     -1.60463609     -0.16426924
H      -7.22209350     -0.00499318     -1.77335963
H      -7.43242547      0.83277751     -0.24704812
H      -5.27170240      1.17678836     -2.34757214
H      -6.30773359      2.37827456     -1.59572953
H      -5.00326663      1.73617273      0.65579495
H      -4.32189434      2.82606036     -0.53597409
H       0.29901876     -1.63281545     -0.82733975
