44
CC(C)(C)CC(C)(C)C1CCC(=N/O)/C(=N\O)C1
C      -1.38667377      1.22306678     -1.77215488
C      -2.45831695      0.54424988     -0.91384894
C      -3.29895591     -0.38542022     -1.81095090
C      -3.41246917      1.65149113     -0.39852741
C      -1.90916839     -0.20204302      0.34658312
C      -0.67925068     -1.18385978      0.32324747
C      -0.69567171     -1.90936240      1.69814527
C      -0.88162055     -2.27298480     -0.74827372
C       0.71192165     -0.46031522      0.11242433
C       1.93628350     -1.43223406      0.11667808
C       3.26121627     -0.72433980     -0.20035977
C       3.42913964      0.40317803      0.77384714
N       4.42094901      0.43433505      1.61154399
O       4.28993836      1.49607654      2.51324260
C       2.27571770      1.35829425      0.75005984
N       2.32527980      2.59175301      0.34575523
O       3.61557616      2.93873673     -0.06899886
C       0.96840361      0.70351873      1.10644872
H      -0.77292693      0.49263207     -2.30634195
H      -0.73603487      1.86407679     -1.16955196
H      -1.84404522      1.85978766     -2.53928585
H      -2.68542182     -1.11046968     -2.34990278
H      -4.04401848     -0.93697831     -1.22708377
H      -3.84065677      0.18881860     -2.57228457
H      -2.87500559      2.38136162      0.21779009
H      -4.21912146      1.22684920      0.21001820
H      -3.87600498      2.19931529     -1.22714174
H      -2.76311343     -0.76829793      0.75076464
H      -1.71470614      0.54711980      1.12463940
H      -0.58182909     -1.20600140      2.52897240
H      -1.64432331     -2.43854799      1.85044870
H       0.09469130     -2.66155969      1.77893005
H      -0.69391558     -1.88650898     -1.75413970
H      -0.20807573     -3.12359961     -0.59765849
H      -1.89890159     -2.67848931     -0.71348546
H       0.71192445     -0.02697953     -0.89247606
H       1.79989803     -2.22615645     -0.62387213
H       2.02829173     -1.91022715      1.09863545
H       4.09916032     -1.42386452     -0.11880571
H       3.24994171     -0.31639489     -1.21683371
H       5.14135486      1.47632531      2.98817833
H       3.53742895      3.89857568     -0.22216396
H       0.18373313      1.46269647      1.06027381
H       1.03937792      0.34237614      2.13751546
