50
CN(C)CC/C=C1/c2ccccc2COc2ccc(CC(=O)O)cc21.Cl
C       3.51772283     -1.66038985     -0.03296653
N       3.59392798     -0.55349048      0.87580346
C       4.93510801     -0.04707496      0.91536388
C       2.59085914      0.44432915      0.74798470
C       1.20047935      0.10003906      1.13038301
C       0.47479776     -0.96205736      0.45748259
C      -0.74716546     -0.84700337     -0.00026921
C      -1.38867254     -2.01572058     -0.66834610
C      -0.43206918     -2.70428021     -1.33887659
C      -0.86932037     -3.84254495     -1.98900590
C      -2.22617136     -4.20664161     -1.92178114
C      -3.13573590     -3.44997514     -1.21830294
C      -2.73444722     -2.28758434     -0.54371934
C      -3.86887264     -1.62955447      0.13741218
O      -3.58641343     -0.50672086      0.93337103
C      -2.71134310      0.55955439      0.71242032
C      -3.15621860      1.81114630      0.95803875
C      -2.32138943      2.91073987      0.74526385
C      -1.01099044      2.72590891      0.27132844
C      -0.12527160      3.88027288      0.04224590
C      -0.27097560      4.36662037     -1.33736668
O      -1.07252938      3.78432125     -2.10533049
O       0.45848457      5.45899765     -1.81541304
C      -0.53626255      1.45386921      0.01224225
C      -1.40332028      0.44209625      0.24847007
Cl      0.68389431      0.00000000      0.00000000
H       3.19160893     -2.56728195      0.53077503
H       4.55814657     -1.82573929     -0.44970228
H       2.87755522     -1.47323063     -0.92221730
H       5.66885686     -0.75175499      0.43377602
H       5.26984648      0.19717804      1.94626653
H       4.97786003      0.88732652      0.31157791
H       2.96746290      1.36415824      1.24743361
H       2.59763814      0.72656985     -0.34868866
H       0.64354380      0.77182789      1.79852429
H       1.47732495     -0.56004151      2.06072637
H       0.91271335     -1.96936026      0.30036837
H       0.58973610     -2.39090159     -1.38585337
H      -0.21912977     -4.47261149     -2.55008665
H      -2.59725176     -5.10062884     -2.42590206
H      -4.17477798     -3.72925146     -1.16752747
H      -4.27146805     -2.41609558      0.84523905
H      -4.69254561     -1.40482715     -0.60644356
H      -4.17017671      1.92952409      1.32132679
H      -2.68374397      3.90974334      0.94607499
H      -0.49413069      4.70159524      0.72063471
H       0.92926038      3.67796746      0.32184412
H       1.07492045      5.99266538     -1.21672775
H       0.39253982      1.27831159     -0.42341161
H      -0.68389431      0.00000000      0.00000000
