22
Clc1ccc(Cl)c(-c2ccccc2Cl)c1
Cl     -3.87926570      2.23834527     -1.00582299
C      -2.91544185      0.90223850     -0.51097297
C      -3.52953565     -0.25994435     -0.05300436
C      -2.74571063     -1.34145564      0.35004152
C      -1.34980400     -1.25819719      0.29325072
Cl     -0.44461361     -2.63596075      0.81844711
C      -0.71620857     -0.08874306     -0.17056554
C       0.74769244      0.04400092     -0.25176781
C       1.44949198      0.58930132      0.83919577
C       2.83848204      0.73372359      0.80254401
C       3.55117852      0.33733649     -0.32582855
C       2.87584851     -0.20327717     -1.41916803
C       1.48499177     -0.34902657     -1.38472964
Cl      0.71407340     -1.01870860     -2.78235363
C      -1.52435609      0.99242228     -0.57020303
H      -4.61322380     -0.33135794     -0.00802811
H      -3.22763974     -2.24858000      0.70707023
H       0.91139388      0.90091553      1.73306587
H       3.36303873      1.15337250      1.65781651
H       4.63247452      0.44743326     -0.35434323
H       3.43834204     -0.51105287     -2.29712529
H      -1.06120819      1.90721447     -0.93579838
