24
C=CCc1ccc(O)c(OC)c1
C      -3.19991964      1.34915954      1.19622562
C      -2.80837604      0.33709298      0.41068409
C      -1.90051904     -0.77684532      0.84984317
C      -0.64754905     -0.86004546      0.00843454
C      -0.53239497     -1.82863894     -1.00073429
C       0.61921398     -1.89822478     -1.78279210
C       1.64945071     -0.99523308     -1.55728126
O       2.76951875     -1.08417065     -2.33954169
C       1.56116410     -0.01292422     -0.56480646
O       2.65485969      0.80874273     -0.46448442
C       2.58699488      1.83919678      0.51438205
C       0.40673602      0.05024752      0.21666559
H      -2.87524602      1.43142799      2.22866794
H      -3.86046205      2.12216752      0.81492150
H      -3.16579702      0.29903787     -0.61676637
H      -1.61340194     -0.66556243      1.90330762
H      -2.45259719     -1.72302256      0.78944150
H      -1.33957190     -2.53436001     -1.18356593
H       0.71337062     -2.64753943     -2.56274275
H       3.35241507     -0.36818187     -2.02035183
H       1.76253391      2.52899005      0.30562779
H       2.50862908      1.42035952      1.52305972
H       3.51920576      2.40994882      0.46291415
H       0.29174230      0.79837743      0.99458508
