46
CC(C)CC(NC(=O)C(N)Cc1c[nH]c2ccccc12)C(=O)O
C      -3.70107182     -1.70656948     -2.03360937
C      -3.80684970     -0.27712785     -1.50094411
C      -4.94288692      0.45871540     -2.21658695
C      -4.03708791     -0.23271353      0.02351489
C      -2.92341930     -0.87610083      0.85852129
N      -1.64715567     -0.20764198      0.63625318
C      -0.45531402     -0.86406733      0.86872395
O      -0.36217848     -2.07810305      1.01651508
C       0.76075465      0.07720388      0.87696900
N       0.34635919      1.40144597      1.42921459
C       1.30135226      0.18964483     -0.55700494
C       2.62697875      0.88758865     -0.63333849
C       2.84869012      2.18591975     -1.05029623
N       4.19116768      2.43978840     -0.97305378
C       4.85929697      1.33127954     -0.50887618
C       6.22504470      1.13543307     -0.27087955
C       6.62720651     -0.11694883      0.20217705
C       5.69923627     -1.13102207      0.42553481
C       4.33741724     -0.91827181      0.18196668
C       3.90473782      0.33713476     -0.29293497
C      -3.27279487     -0.76151797      2.34582895
O      -2.81305403      0.03985485      3.14685664
O      -4.21539645     -1.64543666      2.73493039
H      -2.81536695     -2.21411372     -1.63981852
H      -3.61513129     -1.70858244     -3.12567369
H      -4.58281221     -2.29727116     -1.76331354
H      -2.87305399      0.24724007     -1.73870197
H      -5.90895446     -0.02235267     -2.02914380
H      -4.77613732      0.47357758     -3.29892748
H      -5.00897051      1.49753573     -1.87619932
H      -4.99227025     -0.72121795      0.25844561
H      -4.15286309      0.81600232      0.33112597
H      -2.81058991     -1.94115008      0.62968622
H      -1.58262629      0.78725342      0.85583178
H       1.50946926     -0.35174440      1.55313477
H       0.13895924      1.27351397      2.42305744
H       1.16770354      2.01049661      1.40113762
H       1.40931257     -0.81324674     -0.99156131
H       0.57384450      0.70874852     -1.19597541
H       2.16284601      2.94757631     -1.39771932
H       4.63529698      3.31230828     -1.22292376
H       6.95124680      1.92202298     -0.44704893
H       7.68128048     -0.30211548      0.39599194
H       6.03316004     -2.09907930      0.79086224
H       3.62451337     -1.71904293      0.35704428
H      -4.31988952     -1.47484662      3.69444823
