24
O=[N+]([O-])c1ccc(-c2nc3ccc(Cl)cc3[nH]2)o1
O       4.40978530     -2.26802029     -1.05108238
N       4.75925971     -1.13115131     -0.70806485
O       5.92473470     -0.72045043     -0.63217518
C       3.73461995     -0.19699802     -0.36558701
C       3.78797289      1.11141199      0.04530349
C       2.43538418      1.49479966      0.22893135
C       1.64304041      0.39806894     -0.08093646
C       0.22005368      0.29603749     -0.04741041
N      -0.60933099      1.25909031      0.29515131
C      -1.86473130      0.71460015      0.18115019
C      -3.11885526      1.29499422      0.42245731
C      -4.26886765      0.51658580      0.22969487
C      -4.16572975     -0.81017730     -0.19421014
Cl     -5.60134971     -1.73660969     -0.42055678
C      -2.92521608     -1.41025519     -0.44110639
C      -1.79730423     -0.61013953     -0.24046363
N      -0.45430131     -0.85049241     -0.37845607
O       2.45513771     -0.64771398     -0.44885256
H       4.67733674      1.70897704      0.19298477
H       2.06019123      2.45855627      0.55075132
H      -3.18821402      2.32620276      0.75143399
H      -5.24521574      0.95816921      0.41430902
H      -2.84668839     -2.44046399     -0.77019465
H      -0.02171209     -1.71502169     -0.67155991
