11
O=P([O-])([O-])[O-].O=P([O-])([O-])[O-].[Mn+2]
O      -0.08350580      1.51948983     -0.26077908
P       0.00563003      0.03460059      0.00729139
O       1.58866322     -0.49767639     -0.22607062
O      -1.01978156     -0.72852225     -1.10467166
O      -0.49100588     -0.32789179      1.58422997
O       0.24667176      1.49464961     -0.35025719
P      -0.00192227      0.05035135     -0.00652062
O       1.48527920     -0.76694323     -0.00935994
O      -1.01762828     -0.66764251     -1.14300942
O      -0.71240042     -0.11041523      1.50914717
Mn      0.00000000      0.00000000      0.00000000
