29
CN1C(=O)CCS(=O)(=O)C1c1ccc(Cl)cc1
C      -0.50563290     -0.30084882      2.37490286
N      -0.99398180     -0.51313804      1.01508661
C      -2.27674266     -1.05084955      0.92232925
O      -2.93769054     -1.36037359      1.91326712
C      -2.82607869     -1.34913610     -0.45731899
C      -2.75991227     -0.16904194     -1.39280129
S      -1.07173288      0.22506835     -1.72557883
O      -0.48196902     -0.94552958     -2.34913138
O      -1.06004517      1.51533392     -2.39089188
C      -0.48255898      0.42266796     -0.01864402
C       1.03744061      0.49022632     -0.08544873
C       1.81608192     -0.67688874     -0.18660132
C       3.20949138     -0.60121959     -0.24842541
C       3.83770388      0.64054197     -0.21259758
Cl      5.55371750      0.73425255     -0.28562886
C       3.08406338      1.80809473     -0.11900631
C       1.68988757      1.73486686     -0.05730347
H       0.58579675     -0.27717628      2.39777367
H      -0.83481272     -1.10895843      3.03569112
H      -0.90553952      0.64638609      2.75009360
H      -2.28786362     -2.21766180     -0.85322277
H      -3.87539526     -1.64551375     -0.34106553
H      -3.23922073     -0.39497855     -2.34982198
H      -3.23170426      0.71919388     -0.96083289
H      -0.87601755      1.40477300      0.27990618
H       1.34077975     -1.65654723     -0.22683345
H       3.79544443     -1.51306179     -0.33081179
H       3.57511145      2.77784279     -0.10006484
H       1.12137996      2.66167534      0.00298093
