24
CSCC[C@@H](NC(C)=O)C(=O)[O-]
C       3.89680119     -0.60443018     -0.49823107
S       2.82451421     -0.81474934     -1.94510045
C       1.46619510      0.29743370     -1.42896393
C       0.55773358     -0.35282076     -0.38418110
C      -0.38233075      0.67397900      0.26165984
N      -1.64237542      0.03519052      0.69676962
C      -2.68095895     -0.25320789     -0.14382737
C      -3.92930822     -0.70053670      0.56809001
O      -2.63415931     -0.16677694     -1.36770377
C       0.32739000      1.36704658      1.48242413
O       1.51222058      1.76092859      1.30403374
O      -0.40334940      1.43680379      2.52182026
H       3.42499373     -1.00516658      0.40163912
H       4.82875373     -1.15104645     -0.66674043
H       4.13973451      0.45111798     -0.35112343
H       0.87600411      0.52864076     -2.32277578
H       1.90279539      1.24050586     -1.09085516
H      -0.02117219     -1.14373846     -0.87865002
H       1.14000549     -0.84900150      0.40130997
H      -0.65741231      1.45519457     -0.45758998
H      -1.82142327      0.23547431      1.68213399
H      -3.73972986     -0.91037573      1.62454805
H      -4.29990148     -1.61612420      0.09881828
H      -4.68502046      0.08565906      0.49249549
