24
CCOC(OCC)C(C)=O
C      -3.46681713     -0.56226720     -0.03698051
C      -2.04848712     -0.71753435      0.47574468
O      -1.34364303      0.49256461      0.21366172
C       0.00094079      0.44296835      0.69210899
O       0.76359688     -0.48311648     -0.07170150
C       1.97473645     -0.85734928      0.58166870
C       2.70213923     -1.85198032     -0.30158047
C       0.58565379      1.86182946      0.58383148
C       0.46654243      2.55166594     -0.75064894
O       1.16319266      2.40118372      1.53258562
H      -4.04893186     -1.47010562      0.14436238
H      -3.46726576     -0.35062589     -1.11138501
H      -3.96424776      0.28069500      0.45403536
H      -2.06452167     -0.91348299      1.55349023
H      -1.56280885     -1.55577473     -0.03508184
H      -0.01463736      0.16313051      1.75384610
H       1.74724343     -1.31953400      1.54851817
H       2.60647937      0.02244173      0.74209475
H       2.07886554     -2.73371457     -0.48382197
H       3.63995974     -2.17188657      0.16106843
H       2.92264592     -1.41007839     -1.27894585
H       0.90944930      1.92731006     -1.53034114
H      -0.58402465      2.74991489     -0.97498660
H       1.00393967      3.50374614     -0.71922146
