51
O=C(NCc1ccc(OC(F)(F)F)cc1)C1c2ccccc2C(=O)N1CCOCC(F)(F)F
O      -0.79090813     -2.65962393     -0.78642539
C      -0.19499537     -2.01227594      0.07078246
N      -0.84744681     -1.34693113      1.09634670
C      -2.28836920     -1.23008500      1.12179275
C      -2.71158337      0.10921162      0.57190049
C      -2.86982489      1.21195596      1.41863614
C      -3.21198934      2.46005198      0.89236758
C      -3.38510898      2.63600725     -0.48332942
O      -3.71309395      3.91003890     -0.85219397
C      -3.70401616      4.21704560     -2.23682174
F      -2.49966081      3.95457444     -2.78778759
F      -3.95208213      5.53743956     -2.38604996
F      -4.66487424      3.53349150     -2.89711409
C      -3.22489456      1.54132719     -1.33177810
C      -2.88716565      0.28725235     -0.80655835
C       1.33285896     -1.78851011      0.08189718
C       2.10787298     -2.94131731     -0.49404530
C       2.17985279     -4.26176741     -0.08033259
C       2.99539518     -5.13815138     -0.80626444
C       3.72728219     -4.69170509     -1.92324236
C       3.65323604     -3.36029866     -2.33410634
C       2.84072711     -2.51474475     -1.60195003
C       2.59164449     -1.08267509     -1.80096793
O       3.08018174     -0.40768185     -2.68713567
N       1.73548652     -0.67877570     -0.79158095
C       1.19499887      0.67220896     -0.68606863
C       1.58925147      1.38558663      0.61063095
O       0.93556043      0.77382262      1.73557081
C       1.38994707      1.30645649      2.99573569
C       0.96334433      2.74242529      3.31204188
F      -0.37659305      2.90138135      3.19432804
F       1.30196325      3.06196214      4.58445646
F       1.56836101      3.63714239      2.49596534
H      -0.32771801     -0.59295130      1.54523283
H      -2.60592583     -1.32658457      2.16668468
H      -2.75882629     -2.04508185      0.56019982
H      -2.72363241      1.11323183      2.49183618
H      -3.32883117      3.30722219      1.56668284
H      -3.35751733      1.61561460     -2.40761564
H      -2.75134663     -0.55488098     -1.48572546
H       1.69389955     -1.58742711      1.09582374
H       1.61068328     -4.61920363      0.77293925
H       3.06223645     -6.18297185     -0.50877688
H       4.35087886     -5.39274335     -2.47419045
H       4.20555447     -2.99663662     -3.19360111
H       0.10855393      0.60594936     -0.77703619
H       1.56232104      1.25852009     -1.53607951
H       1.26944691      2.43087221      0.53836851
H       2.67623562      1.34537894      0.74664050
H       2.48120527      1.20587382      3.05650312
H       0.96742445      0.65097934      3.76836200
