19
COC(=O)c1ccc(O)c(I)c1
C       3.72878151      0.06674826     -0.06489719
O       2.33404655      0.20171728     -0.34246452
C       1.52887165     -0.26262390      0.64470120
O       1.89993025     -0.76039749      1.69583925
C       0.09562000     -0.08771939      0.28285794
C      -0.30804275      0.48706633     -0.93105333
C      -1.66678056      0.62858200     -1.22267644
C      -2.62161536      0.19811688     -0.30632425
O      -3.93049495      0.36822383     -0.65873233
C      -2.23109175     -0.37561849      0.90544244
I      -3.64042318     -1.02994882      2.29811019
C      -0.87358745     -0.51931854      1.20169441
H       4.28392896      0.46805356     -0.91724186
H       3.99962442      0.64121972      0.82652069
H       3.99519494     -0.98788832      0.05661074
H       0.42244875      0.82965428     -1.66016562
H      -1.98003392      1.07411336     -2.16360717
H      -4.47849781      0.02522709      0.07020499
H      -0.55787932     -0.96520763      2.14337143
