33
CCC(CC)C(=O)N(CC)CC
C      -2.01359960      2.40417893      0.64489417
C      -2.35575929      0.93678384      0.41215980
C      -1.16016246      0.13487332     -0.14196486
C      -1.58624585     -1.29217155     -0.54299307
C      -2.36386324     -1.33656443     -1.85094047
C      -0.03969375      0.01878343      0.90178137
O      -0.30771016      0.02175550      2.10607545
N       1.26810270     -0.14940688      0.44998061
C       2.32377678     -0.29845880      1.45328949
C       2.53765301     -1.75710471      1.82615054
C       1.69084002     -0.13753908     -0.95218729
C       2.06408547      1.26209947     -1.41669640
H      -1.67517110      2.87832136     -0.28197459
H      -1.22852763      2.52194659      1.39754851
H      -2.89818505      2.94443817      0.99706959
H      -3.19198541      0.89862708     -0.29436884
H      -2.71634844      0.49886281      1.35068501
H      -0.78721089      0.67291889     -1.01878036
H      -0.70722235     -1.93934252     -0.64882968
H      -2.19242778     -1.73983467      0.25467478
H      -1.78118422     -0.89891524     -2.66770650
H      -3.31305318     -0.79895101     -1.77660533
H      -2.59062050     -2.37409571     -2.11686904
H       2.06145011      0.26959389      2.35284586
H       3.25209317      0.13401081      1.06419132
H       1.62403897     -2.19694522      2.23925011
H       3.32979637     -1.84586553      2.57583073
H       2.82611466     -2.34896492      0.95145515
H       2.54669203     -0.81283862     -1.06407225
H       0.89927637     -0.53297422     -1.59240754
H       2.36355699      1.24531725     -2.46908302
H       2.89835546      1.66285863     -0.83205849
H       1.22313878      1.95460311     -1.31034477
