49
CCCCCCCCCCCCN1CCCC1=O
C       7.32900622      1.96369907     -0.72595579
C       5.90487076      1.67237882     -0.27728581
C       5.41529612      0.32770683     -0.81646468
C       3.94535502      0.03850496     -0.49453738
C       3.68177910     -0.17448593      0.99853185
C       2.21065153     -0.46344965      1.31943010
C       1.71776995     -1.80000079      0.75845701
C       0.32926048     -2.19619072      1.27137585
C      -0.78070537     -1.24548744      0.81488958
C      -2.15643903     -1.75237952      1.25578473
C      -3.29390510     -0.78239288      0.92626198
C      -3.51120623     -0.59200424     -0.57558767
N      -4.68261138      0.21769520     -0.86285955
C      -4.69706468      1.64633579     -0.67863528
C      -6.04224501      2.04900852     -1.24853434
C      -6.93692937      0.85567548     -0.93403742
C      -5.97029023     -0.30417866     -0.90905468
O      -6.28333044     -1.48276108     -0.88218462
H       8.01810258      1.19154734     -0.36918269
H       7.39581204      2.00683656     -1.81774961
H       7.66215620      2.92711845     -0.32745513
H       5.87599858      1.67865361      0.81727562
H       5.24690541      2.47634214     -0.62662860
H       6.04415651     -0.48101899     -0.42461648
H       5.53282342      0.31764516     -1.90738482
H       3.65691543     -0.86166816     -1.04883851
H       3.31873288      0.85660723     -0.86960605
H       4.30773439     -0.99332058      1.37311252
H       3.97037022      0.72464379      1.55424740
H       1.59325285      0.35789104      0.93830711
H       2.09498585     -0.46909703      2.41031986
H       1.69730324     -1.76661493     -0.33660603
H       2.42417848     -2.59055291      1.03994388
H       0.34393797     -2.25039016      2.36675383
H       0.10674644     -3.20742092      0.90851823
H      -0.74700908     -1.15286709     -0.27623257
H      -0.61536623     -0.24700433      1.23443962
H      -2.14801088     -1.91373965      2.34094711
H      -2.35876424     -2.72616700      0.79341611
H      -4.21635819     -1.16690094      1.37949205
H      -3.09981936      0.18680861      1.40154603
H      -3.65092115     -1.56935099     -1.05160158
H      -2.65133248     -0.10609535     -1.04730739
H      -3.86201750      2.11265909     -1.20839417
H      -4.63445461      1.86770606      0.39188693
H      -5.96508523      2.17033879     -2.33635157
H      -6.41883147      2.98687909     -0.83104197
H      -7.70312329      0.71147568     -1.69937163
H      -7.39828112      0.95138264      0.05356444
