25
CCOC(=O)COc1cc(Cl)c(Cl)cc1Cl
C       4.98401064     -1.03346593      0.00921437
C       4.03969115      0.14383601      0.15493914
O       2.69614984     -0.34522720      0.05244038
C       1.73892605      0.62489402      0.16819971
O       1.96995083      1.81264696      0.34383617
C       0.36369396     -0.01599787      0.04320482
O      -0.66515187      0.95937291      0.15800373
C      -1.96677441      0.54301547      0.06696104
C      -2.36326538     -0.78343694     -0.13255736
C      -3.72334125     -1.11378735     -0.21269450
Cl     -4.12757164     -2.77639675     -0.46053578
C      -4.69812606     -0.11794692     -0.09362266
Cl     -6.38859045     -0.46013228     -0.18343167
C      -4.31270104      1.20733315      0.10545919
C      -2.95662826      1.53397367      0.18496908
Cl     -2.54260006      3.19433138      0.43272678
H       4.83380897     -1.53110293     -0.95458021
H       4.79172147     -1.78037630      0.78655195
H       6.02591655     -0.70915810      0.08083013
H       4.22998985      0.87144525     -0.64194880
H       4.18710593      0.61747357      1.13197325
H       0.27109467     -0.75050098      0.85143585
H       0.31442816     -0.49370351     -0.94202444
H      -1.63673760     -1.58410761     -0.22967619
H      -5.06500007      1.98701824      0.19894878
