50
CC(C)[C@H]1CC[C@H](C(=O)N[C@H](Cc2ccccc2)C(=O)O)CC1
C      -6.41087019     -0.88375609     -1.14230320
C      -5.47268174      0.28074458     -0.80544168
C      -5.92224728      0.93488442      0.50387309
C      -3.98359995     -0.16324025     -0.82225803
C      -3.02926918      1.04375259     -0.77500945
C      -1.56507818      0.61599183     -0.87300568
C      -1.19540953     -0.39933231      0.21600038
C       0.25517077     -0.85193097      0.05768877
O       0.57606214     -1.97601931     -0.31195767
N       1.17992601      0.12145976      0.37454283
C       2.60492040     -0.07139894      0.06645913
C       3.46921805      0.67424347      1.08963771
C       4.94863687      0.40879491      0.95036673
C       5.80326180      1.39331228      0.43572896
C       7.16933243      1.14187845      0.29891543
C       7.69328054     -0.09359778      0.67399489
C       6.85226505     -1.07896298      1.18704054
C       5.48611484     -0.83005736      1.32555088
C       2.83305936      0.50275570     -1.32950597
O       2.32815697      1.52771173     -1.76905111
O       3.68261245     -0.22080086     -2.08212766
C      -2.15100072     -1.59845915      0.17944770
C      -3.61361421     -1.16622512      0.28369858
H      -6.42469574     -1.63887133     -0.35022057
H      -7.43735405     -0.52354221     -1.27234261
H      -6.11095973     -1.37060251     -2.07608572
H      -5.59921441      1.02696505     -1.60174734
H      -5.87557171      0.23627019      1.34496002
H      -6.95980756      1.27779417      0.42119164
H      -5.31336645      1.80956995      0.74833538
H      -3.81325280     -0.66321348     -1.78716495
H      -3.16572062      1.60480278      0.15664649
H      -3.25607334      1.73107169     -1.59865712
H      -0.93209481      1.50800633     -0.80253266
H      -1.37464033      0.18379874     -1.86414659
H      -1.28305800      0.08030351      1.20051602
H       0.85519643      1.08132793      0.37008728
H       2.82552993     -1.14441093      0.05534421
H       3.28175734      1.75492488      1.02604784
H       3.16699286      0.38878897      2.10653311
H       5.41337108      2.36370583      0.13595694
H       7.82562968      1.91041096     -0.10105393
H       8.75686250     -0.28909927      0.56620693
H       7.26006909     -2.04344716      1.47854206
H       4.84454989     -1.61177005      1.72745963
H       3.72880989      0.25140539     -2.93829294
H      -2.01050342     -2.16693377     -0.74930662
H      -1.91608083     -2.28609004      1.00127380
H      -3.77984295     -0.72407197      1.27292787
H      -4.24477861     -2.05884227      0.21983217
