26
NC(=O)N[C@@H](Cc1ccccc1)C(=O)[O-]
N       3.11853666      1.54520474     -0.74076247
C       2.62608339      0.28840415     -0.58755253
O       3.21809602     -0.54636621      0.08100029
N       1.43494237      0.13736835     -1.20957084
C       0.69667642     -1.13947481     -1.30029411
C       0.09085005     -1.58282282      0.03908191
C      -0.77889407     -0.55368866      0.73332769
C      -2.10811819     -0.35956541      0.33777423
C      -2.90640365      0.59036726      0.97722326
C      -2.38461377      1.35488059      2.01949412
C      -1.06210977      1.17245259      2.42026993
C      -0.26278147      0.22414119      1.77938853
C      -0.34831589     -1.12094636     -2.46215789
O      -0.23752055     -0.12020897     -3.24059053
O      -1.15216880     -2.09335956     -2.52019121
H       3.89626913      1.74043416     -0.12863703
H       2.40709817      2.25936000     -0.79800577
H       1.24101282      0.71326552     -2.02568521
H       1.43663825     -1.89601601     -1.59601194
H      -0.49420269     -2.50324359     -0.08485931
H       0.90434576     -1.86059156      0.72265752
H      -2.52173783     -0.94524746     -0.48312561
H      -3.93170507      0.73395709      0.64941901
H      -3.00619765      2.09645259      2.51128562
H      -0.64821364      1.77072144      3.22590233
H       0.77243400      0.09452174      2.08730107
