50
CC(C)Cc1ccc(C(C)C(=O)OCC(=O)N(C)CC(N)=O)cc1
C      -7.13012100      0.10972105     -1.08265100
C      -5.85252650      0.45143613     -0.31197135
C      -6.10617262      0.31695076      1.19172596
C      -4.69896173     -0.45386090     -0.78666047
C      -3.34746960     -0.05438829     -0.24413098
C      -2.71878684     -0.82312419      0.74133354
C      -1.47055814     -0.44954300      1.24714001
C      -0.82500032      0.70526201      0.78325337
C       0.54055844      1.12659831      1.29763349
C       0.66493521      1.10485648      2.82351794
C       1.65452519      0.33385618      0.63145511
O       2.32080622      0.75009771     -0.31372853
O       1.79901639     -0.90687274      1.18431088
C       2.87074821     -1.66554407      0.61665079
C       4.23848659     -1.00684467      0.85772981
O       4.40563205     -0.25554917      1.82239708
N       5.24551208     -1.24265369     -0.06942522
C       5.08403630     -2.06917090     -1.25645695
C       6.42430031     -0.36865228     -0.03164917
C       6.33621749      0.87484663     -0.92855292
N       5.09682842      1.27896403     -1.33438655
O       7.32770915      1.53258938     -1.23815074
C      -1.45376268      1.46589674     -0.21368674
C      -2.70156446      1.09232429     -0.71896616
H      -7.95512785      0.76220955     -0.77761452
H      -6.98203098      0.24254567     -2.15959110
H      -7.43535428     -0.92751681     -0.90708087
H      -5.60620891      1.49984564     -0.52290652
H      -6.95795256      0.93409584      1.49748809
H      -6.32560440     -0.72041760      1.46644216
H      -5.23959680      0.64744230      1.77285331
H      -4.91217463     -1.49874457     -0.52508027
H      -4.63689953     -0.43218579     -1.88306222
H      -3.19769920     -1.72103602      1.12588262
H      -1.00952884     -1.07911735      2.00494717
H       0.70835657      2.17386329      1.00809966
H      -0.09783662      1.74132244      3.28537122
H       0.55691551      0.09870648      3.24182442
H       1.64899705      1.47584654      3.13163639
H       2.88128410     -2.64501283      1.10491842
H       2.65918149     -1.81226982     -0.44621535
H       4.45291268     -2.93423730     -1.03781729
H       4.62197184     -1.47417110     -2.04876435
H       6.05975454     -2.43544205     -1.58832820
H       7.29299184     -0.95832350     -0.34431962
H       6.60579075     -0.01917474      0.99019043
H       4.25720883      0.99423382     -0.83409972
H       5.04847032      2.17676583     -1.79695779
H      -0.97607417      2.36019598     -0.60968894
H      -3.16613492      1.70338032     -1.48985747
