56
O=C(NCc1ccc(OCC(F)(F)F)cc1)C1c2ccccc2C(=O)N1CCc1ccccn1
O       1.36254220     -2.14821634     -2.38939785
C       0.34177407     -1.49128146     -2.19246417
N       0.21277256     -0.16947912     -2.57196661
C       1.35791061      0.63897100     -2.91256378
C       1.93083961      1.27834823     -1.67208954
C       1.44714237      2.50568202     -1.20696753
C       1.94464683      3.05813930     -0.02309685
C       2.92873818      2.39580796      0.71386130
O       3.31948859      3.03646278      1.85824642
C       4.53338323      2.57279816      2.46676041
C       4.91753251      3.46887986      3.63363538
F       6.08461812      3.04844967      4.18029748
F       3.98524016      3.44853770      4.61311044
F       5.09606758      4.75144867      3.24816220
C       3.40359735      1.16282030      0.26584917
C       2.90528525      0.61038608     -0.91931086
C      -0.93561632     -2.11659257     -1.59331176
C      -1.74407923     -2.83745688     -2.63375021
C      -1.39018042     -3.89918040     -3.45080859
C      -2.34372852     -4.39075267     -4.34794117
C      -3.63207304     -3.82608576     -4.41507618
C      -3.98600113     -2.76084413     -3.58503366
C      -3.02396943     -2.28989147     -2.71167331
C      -3.12871687     -1.21342180     -1.71990469
O      -4.13640851     -0.57812958     -1.47721504
N      -1.89124074     -1.10845291     -1.10723898
C      -1.67526922     -0.36669103      0.12911628
C      -2.18847831     -1.11048816      1.36108289
C      -1.90788667     -0.30971864      2.60228675
C      -2.91149601      0.44771422      3.20154132
C      -2.59533927      1.20757886      4.32331106
C      -1.29525426      1.18956642      4.81395606
C      -0.35916361      0.41176996      4.15690816
N      -0.63480661     -0.33315777      3.06473435
H      -0.62615413      0.30660180     -2.26242600
H       1.02369852      1.40798161     -3.61795164
H       2.11579450      0.03259542     -3.41992942
H       0.67352079      3.04123744     -1.75501401
H       1.55762556      4.01342573      0.32835475
H       5.34784139      2.59362164      1.72948119
H       4.39682402      1.55073244      2.84454607
H       4.14008156      0.59031441      0.82217927
H       3.26602607     -0.36791879     -1.23895649
H      -0.67565812     -2.77945423     -0.76140569
H      -0.39741449     -4.33833450     -3.40589347
H      -2.08663301     -5.22177262     -5.00382078
H      -4.35629882     -4.22705136     -5.12049940
H      -4.97600058     -2.31800690     -3.61836843
H      -0.60568515     -0.14189202      0.21540085
H      -2.20426047      0.58922456      0.03286859
H      -1.69477445     -2.08518975      1.45163118
H      -3.26192262     -1.31874267      1.27098050
H      -3.92258609      0.44628501      2.80694215
H      -3.35729209      1.80899333      4.81070883
H      -1.01725186      1.76933767      5.68599237
H       0.66864839      0.36449126      4.50213071
