47
CCC12CC[C@@H]3[C@H]4CCC(=O)C=C4CC[C@H]3[C@@H]1CCC2=O
C      -4.07870374     -0.97315221     -1.92845069
C      -3.27933246      0.16551564     -1.30087201
C      -2.15623002     -0.27037041     -0.31314627
C      -1.26645422     -1.34541071     -0.94362402
C       0.03537578     -1.61332991     -0.20088760
C       0.84767915     -0.32782700     -0.02923778
C       2.22964563     -0.57623530      0.63822850
C       3.14452359     -1.61064261     -0.03988897
C       3.83315371     -1.06703195     -1.28112673
C       4.60660394      0.18504956     -0.94199482
O       5.63799241      0.50138663     -1.52931061
C       4.03418142      1.10250329      0.07340923
C       2.92683098      0.76583689      0.75473624
C       2.20558401      1.74595801      1.63426918
C       0.80830713      1.98829498      1.06025745
C       0.02015645      0.67411848      0.82634623
C      -1.37630560      0.97480776      0.20811929
C      -2.32906463      1.56839315      1.26650044
C      -2.89974133      0.36581311      2.01146788
C      -2.82012585     -0.73358321      0.98160014
O      -3.24730352     -1.86460873      1.17965591
H      -4.87841242     -0.56253296     -2.55402172
H      -4.54431577     -1.60582029     -1.16776577
H      -3.45364303     -1.59976368     -2.57111257
H      -3.99925871      0.82439100     -0.80135418
H      -2.83350548      0.75320589     -2.11355795
H      -1.01302627     -1.04486565     -1.96923262
H      -1.80782952     -2.29625005     -1.02266528
H      -0.17207600     -2.06837955      0.77525278
H       0.59287083     -2.35222891     -0.78417680
H       1.01023530      0.11316937     -1.02351923
H       2.04874286     -0.95621992      1.65442029
H       3.92232578     -1.89872410      0.68246212
H       2.61353673     -2.53607228     -0.27727891
H       3.11240178     -0.83326532     -2.07128550
H       4.53562115     -1.81600333     -1.66248796
H       4.51522223      2.06987499      0.16132823
H       2.13476713      1.34586348      2.65273037
H       2.74168801      2.69970595      1.70271318
H       0.89825611      2.53156742      0.10996485
H       0.26719367      2.64738806      1.74673427
H      -0.12603493      0.21147331      1.81294723
H      -1.23756737      1.69378970     -0.60965442
H      -1.85199897      2.26873496      1.95646546
H      -3.13864485      2.12244228      0.77686170
H      -3.93309338      0.53718549      2.32111379
H      -2.28022772      0.09584868      2.87105215
