24
C=CCc1ccc2cncnc2c1O
C      -4.08441745      0.62530325      0.38092203
C      -3.06691670     -0.17138636      0.02816138
C      -2.09009872      0.12803122     -1.07465590
C      -0.67637316      0.26656993     -0.56270912
C      -0.22882703      1.49907260     -0.06937264
C       1.06936578      1.63193354      0.42369934
C       1.93528545      0.52169646      0.43369329
C       3.23981855      0.56164383      0.90542976
N       4.06844672     -0.50004361      0.91822057
C       3.55251327     -1.63864289      0.43679816
N       2.31086919     -1.80799136     -0.04628767
C       1.51406760     -0.72203684     -0.04289718
C       0.20925225     -0.81987837     -0.52935046
O      -0.21722245     -2.04547919     -0.99277823
H      -4.75640793      0.34060908      1.18481210
H      -4.27083197      1.57034316     -0.11894864
H      -2.92483295     -1.11431574      0.55345521
H      -2.36846081      1.04898941     -1.60376053
H      -2.14821091     -0.66499732     -1.82971011
H      -0.89510850      2.35976677     -0.06356341
H       1.40029273      2.59657903      0.80174979
H       3.67037410      1.47807559      1.29994961
H       4.20131812     -2.50823132      0.43747263
H       0.55610483     -2.63561086     -0.87032998
