14
O=P([O-])([O-])OP(=O)([O-])OP(=O)([O-])[O-].[Al+3]
O      -2.53417861     -0.67441203      1.21996620
P      -2.35274048     -0.14284600     -0.17751566
O      -1.67164886      1.41036032     -0.02553706
O      -3.77607865     -0.11073284     -1.03739964
O      -1.16250909     -1.11035178     -0.91773159
P       0.18281764     -1.04837450      0.14148731
O      -0.30849280     -1.66470849      1.44966816
O       1.48363578     -1.90895389     -0.46280944
O       0.52692742      0.56359537      0.44170116
P       2.05411584      1.02358150     -0.07609558
O       2.64784604      1.91215354      1.01122450
O       1.84387813      2.02212239     -1.44200569
O       3.06642764     -0.27143360     -0.39650398
Al      0.00000000      0.00000000      0.00000000
