24
NC(Cc1cc(I)c(O)c(I)c1)C(=O)O
N      -2.90135037      1.50208282      0.83939373
C      -1.56457147      0.82263845      0.91877297
C      -1.33992937     -0.10124333     -0.28920491
C       0.12242333     -0.28942961     -0.62736391
C       0.82620305     -1.41062404     -0.16755578
C       2.18143918     -1.57062925     -0.47430943
I       3.16857925     -3.26829772      0.24745296
C       2.85120427     -0.61358583     -1.24433116
O       4.17837738     -0.75712209     -1.55214306
C       2.15503154      0.50687720     -1.70525204
I       3.07993682      1.98748623     -2.86122036
C       0.79878836      0.66889710     -1.39742300
C      -1.52480620      0.03821833      2.24684164
O      -0.74641842     -0.85551461      2.53404939
O      -2.48682551      0.48438963      3.10030880
H      -3.59240342      0.81598493      0.51469524
H      -2.85595277      2.18937425      0.08068586
H      -0.80367612      1.60848657      0.98665722
H      -1.81368978     -1.07862464     -0.12861861
H      -1.82600240      0.31692335     -1.18158021
H       0.31435397     -2.15381960      0.44296221
H       4.49423854     -1.57707758     -1.13218452
H       0.26234548      1.54376215     -1.75944216
H      -2.97729532      1.19084726      2.60880918
