30
O=C(O)CCC(=O)OCn1c(=O)oc2ccc(Cl)cc21
O      -2.39759109      1.23130545      0.57991864
C      -3.49784237      0.72309401      0.71527951
O      -4.54739158      1.44794233      1.14411938
C      -3.87168217     -0.71016011      0.45077320
C      -2.70384903     -1.48010050     -0.15291813
C      -1.57314418     -1.60411595      0.83833690
O      -1.72114168     -1.81489128      2.03401349
O      -0.37922446     -1.45721621      0.21129653
C       0.73041091     -1.47017827      1.10556053
N       1.88648274     -1.01700749      0.39026451
C       2.98740589     -1.78070360      0.07900510
O       3.15950438     -2.95585710      0.37155171
O       3.93278086     -1.02754809     -0.63491699
C       3.32230003      0.21283665     -0.72761014
C       3.85301198      1.32114407     -1.35243236
C       3.08392454      2.48980201     -1.34672525
C       1.82006529      2.51261908     -0.72334925
Cl      0.90087816      3.96902256     -0.73896982
C       1.30007795      1.37893404     -0.09467778
C       2.08387881      0.24530240     -0.11709665
H      -4.18519196      2.34663893      1.29413118
H      -4.19693138     -1.16427587      1.39278937
H      -4.70789223     -0.71965808     -0.25672968
H      -3.01391444     -2.49118113     -0.43640763
H      -2.34689321     -0.96865162     -1.05474378
H       0.56973626     -0.79576778      1.95563005
H       0.89342213     -2.49088354      1.46814704
H       4.82608893      1.28755275     -1.82960706
H       3.46762228      3.38573480     -1.83003091
H       0.32509865      1.39626756      0.37884591
