32
Nc1ncc2ncn(CCC(CO)CO)c2n1
N       2.58034737      2.43015382     -1.75214525
C       2.47567809      1.10073640     -1.39624481
N       3.23621584      0.23413284     -2.08769655
C       3.17970274     -1.08560987     -1.76775678
C       2.35452245     -1.50060508     -0.73211622
N       2.08698185     -2.72978629     -0.18039426
C       1.21343741     -2.48609400      0.77474213
N       0.90794198     -1.15310793      0.86168812
C       0.01212339     -0.55192280      1.82654187
C      -1.45972336     -0.54908758      1.39422331
C      -1.81082621      0.27858510      0.13297353
C      -3.22134380     -0.06660827     -0.37109116
O      -3.29635723     -1.42864660     -0.77010173
C      -1.74505197      1.79546997      0.36235436
O      -0.47073787      2.22894772      0.80214894
C       1.63670490     -0.50200544     -0.09541382
N       1.65038068      0.81257724     -0.37622623
H       3.45332433      2.57457082     -2.24225982
H       2.40097993      3.02593171     -0.95623142
H       3.79287272     -1.76509531     -2.34446907
H       0.77444214     -3.23007210      1.42763992
H       0.10608686     -1.14266218      2.74696152
H       0.38730902      0.44277274      2.07590596
H      -1.75363024     -1.59392345      1.23442894
H      -2.06619213     -0.18812877      2.23479429
H      -1.10202654      0.00422332     -0.65635389
H      -3.46955378      0.53899684     -1.24913069
H      -3.98378959      0.12400143      0.39270283
H      -3.61062620     -1.94796519     -0.01080755
H      -1.97920996      2.33511773     -0.56176541
H      -2.47677199      2.10299021      1.11719552
H       0.19678917      1.89211296      0.16590341
