15
Oc1cccc(O)c1O
O       2.43863273      0.03159323      0.12620374
C       1.09252668     -0.19377605      0.04586007
C       0.56314034     -1.47754082     -0.04712679
C      -0.82536906     -1.64260543     -0.12653990
C      -1.67381279     -0.53015642     -0.11274130
C      -1.12739364      0.74248752     -0.01945522
O      -1.95247025      1.82922823     -0.00578374
C       0.24860455      0.91147067      0.05951977
O       0.76115308      2.17770255      0.15074566
H       2.89018001     -0.83007380      0.10501120
H       1.20291212     -2.35417215     -0.05947253
H      -1.25062318     -2.64083829     -0.19954081
H      -2.75076807     -0.65577071     -0.17421175
H      -1.34621930      2.59410370      0.06447528
H       1.72950677      2.03834777      0.19305631
