43
CCCCNCc1ccc(C(=O)c2csc(S(N)(=O)=O)c2)cc1
C      -4.53539111      2.11163387      0.24916611
C      -5.82077336      1.30785196      0.33691604
C      -5.71042195     -0.15070077     -0.12010080
C      -4.81445952     -1.04730227      0.74262043
N      -3.41584222     -0.99127663      0.32311834
C      -2.57894860     -1.85371894      1.15434737
C      -1.13375869     -1.76601596      0.72051422
C      -0.20216818     -1.03488180      1.47227857
C       1.13000340     -0.94822556      1.05949203
C       1.53664849     -1.57873969     -0.12266207
C       2.94491843     -1.51999839     -0.58561784
O       3.48505108     -2.56333134     -0.94429542
C       3.65808048     -0.23908122     -0.61013276
C       3.07452107      1.01585027     -0.62142092
S       4.22053785      2.28656989     -0.66070053
C       5.52882702      1.19072523     -0.70905542
S       7.14741217      1.90156885     -0.78289936
N       7.30667901      2.99942465      0.47999949
O       7.21079113      2.67058128     -2.00267162
O       8.06747430      0.82808041     -0.48874172
C       5.08915301     -0.11778421     -0.68512351
C       0.61889726     -2.32320055     -0.87003616
C      -0.71137239     -2.40573320     -0.45514401
H      -4.06131050      2.00000030     -0.73079004
H      -4.74847263      3.17493504      0.40263934
H      -3.82536708      1.81228280      1.02511858
H      -6.57521487      1.80019341     -0.28935043
H      -6.19987174      1.34476947      1.36526651
H      -6.72382546     -0.57285707     -0.09272477
H      -5.39748941     -0.19185835     -1.17119899
H      -4.92037858     -0.77348362      1.79906179
H      -5.16818906     -2.07975708      0.63227090
H      -3.06177499     -0.04008727      0.37740962
H      -2.90344789     -2.89910517      1.07903137
H      -2.66260953     -1.56813006      2.21050034
H      -0.50820743     -0.53540266      2.38938352
H       1.84059917     -0.40096899      1.67410019
H       2.02187704      1.26705417     -0.61658197
H       8.10247536      2.72330885      1.05721680
H       7.41858878      3.93630371      0.08936423
H       5.76821773     -0.96426456     -0.71652419
H       0.93442453     -2.83563786     -1.77669791
H      -1.42588213     -2.96959095     -1.05272108
