26
CNC(=O)N(C)c1nc2ccccc2s1
C      -3.43239108     -0.38223850      1.81540541
N      -2.39855486     -0.09482180      0.85719426
C      -2.63755698     -0.10734347     -0.49113097
O      -3.78798582     -0.24171251     -0.91466173
N      -1.54109287      0.07336155     -1.34150250
C      -1.84087185      0.18060179     -2.76691892
C      -0.23191671      0.09920893     -0.84340317
N       0.13147817     -0.07047456      0.41047783
C       1.50837692      0.01338601      0.53437149
C       2.24057889     -0.11429250      1.73207889
C       3.63512095     -0.00759159      1.70850526
C       4.30394407      0.22340040      0.51057656
C       3.59951714      0.35332373     -0.69035311
C       2.19955440      0.24453910     -0.65375406
S       1.06646787      0.35484667     -1.93977884
H      -3.08159821     -0.08309833      2.80570105
H      -4.34548790      0.16354337      1.56297791
H      -3.63519995     -1.45642416      1.80259453
H      -1.43057448     -0.21501187      1.14422954
H      -1.45695634      1.13167005     -3.14967625
H      -1.37803222     -0.65780948     -3.29739754
H      -2.91354123      0.15550916     -2.97741376
H       1.71691419     -0.29431548      2.66576129
H       4.19760360     -0.10616788      2.63426759
H       5.38923937      0.30434971      0.50635716
H       4.12296492      0.53356167     -1.62450791
