23
Clc1ccc(Cl)c(Oc2ccccc2)c1
Cl      2.68452965     -1.28381400     -3.00851298
C       2.51917750     -0.58759154     -1.44414337
C       3.56780791     -0.68787718     -0.52974829
C       3.44196883     -0.11381100      0.73773797
C       2.26524175      0.55259321      1.08820693
Cl      2.15031825      1.24950842      2.66210317
C       1.20737973      0.63215323      0.17477400
O       0.07068577      1.32872929      0.52515996
C      -1.13287677      0.68091504      0.35994919
C      -1.35886243     -0.62082836      0.81447207
C      -2.61341531     -1.20659114      0.63920147
C      -3.64085040     -0.48811856      0.02642236
C      -3.41936449      0.82027990     -0.40446947
C      -2.16645448      1.40856860     -0.23057591
C       1.34192823      0.07564930     -1.10323478
H       4.48586213     -1.20447196     -0.79902957
H       4.26446513     -0.18685380      1.44511324
H      -0.57360566     -1.18039852      1.31412870
H      -2.79271606     -2.22039213      0.98799566
H      -4.61841235     -0.94510356     -0.10629828
H      -4.22389488      1.38312522     -0.87063348
H      -1.99529331      2.43044390     -0.55756689
H       0.53638124      0.16388562     -1.82711834
