14
O=[N+]([O-])c1cc[n+]([O-])cc1
O      -2.93220687      1.13492536     -0.11514451
N      -2.37548959      0.03355778     -0.01438983
O      -2.96427422     -1.05162770      0.07942561
C      -0.90591747      0.01279765     -0.00548763
C      -0.19394102      1.21115842     -0.10874707
C       1.20158269      1.16933617     -0.09832550
N       1.89421133     -0.02675890      0.01147505
O       3.15816619     -0.04461431      0.01913237
C       1.16679421     -1.20279354      0.11267237
C      -0.22937785     -1.20517829      0.10618296
H      -0.69615992      2.17207719     -0.19669790
H       1.84825917      2.03146324     -0.17196802
H       1.78792113     -2.08283056      0.19399298
H      -0.75956778     -2.15151249      0.18787913
