24
CC(=O)C(Oc1ccccc1Cl)C(=O)O
C       3.05128194     -0.99441833     -1.02202943
C       1.91905237     -0.00861806     -1.17041371
O       1.57700859      0.37935357     -2.29035625
C       1.23590589      0.47256688      0.11115763
O       0.04844703      1.24169839     -0.15322324
C      -1.07471545      0.45303122     -0.15545845
C      -1.55368998     -0.00676679     -1.38228305
C      -2.71104003     -0.78491767     -1.42800719
C      -3.39916087     -1.08676055     -0.25207995
C      -2.93719717     -0.60211590      0.97329303
C      -1.77997061      0.17614241      1.02160569
Cl     -1.25066252      0.78525425      2.54590529
C       2.17394163      1.35689005      0.92086931
O       3.32493837      1.05491878      1.20559598
O       1.61377291      2.51789381      1.34267244
H       3.15438287     -1.56868885     -1.94728178
H       2.83543186     -1.69521288     -0.21160947
H       3.98436122     -0.46343762     -0.82350430
H       1.00400638     -0.40075354      0.73515909
H      -1.03322191      0.24130304     -2.30515910
H      -3.08112584     -1.14867210     -2.38425299
H      -4.30378456     -1.68959055     -0.29216662
H      -3.48920444     -0.82793390      1.88227449
H       0.69124230      2.59883436      1.01042890
