31
CC(C(=O)O)c1ccc(-c2ccccc2)c(F)c1
C      -3.96243421     -0.58808737     -1.33063833
C      -3.35272067      0.48777635     -0.42931505
C      -4.04860318      0.50085138      0.91935868
O      -4.51024933     -0.45779842      1.51797729
O      -4.10718167      1.73421960      1.46399349
C      -1.85085105      0.32234670     -0.28641867
C      -1.29039485     -0.81657221      0.30851742
C       0.09835048     -0.95108047      0.43208869
C       0.97349243      0.04540622     -0.03237717
C       2.43349622     -0.10767555      0.10312038
C       3.01485226     -0.45859170      1.33444756
C       4.39813001     -0.61370274      1.46381628
C       5.22719074     -0.42072637      0.36239331
C       4.67449165     -0.07117132     -0.86646445
C       3.29103931      0.08371807     -0.99353769
C       0.39629544      1.17734438     -0.62545625
F       1.17177294      2.17226279     -1.08517596
C      -0.98701145      1.32085532     -0.75205911
H      -5.03842576     -0.42198600     -1.45474326
H      -3.50019645     -0.57532437     -2.32384357
H      -3.83590109     -1.59437446     -0.91579719
H      -3.57160095      1.45214156     -0.90803220
H      -4.53917243      1.59220432      2.33232709
H      -1.92837044     -1.61538749      0.68557401
H       0.49533695     -1.85658037      0.88831787
H       2.39006381     -0.60207193      2.21376153
H       4.82602631     -0.88095630      2.42644711
H       6.30281850     -0.53906066      0.46200724
H       5.31756366      0.08339876     -1.72887905
H       2.88300013      0.35527342     -1.96542550
H      -1.37080730      2.22553943     -1.21598450
