29
O=C(O)c1ccccc1C(=O)Nc1ccccc1
O      -0.47324990      1.74365063      1.57114469
C      -1.60413097      1.51936136      1.18348281
O      -2.46764904      2.48699469      0.84039135
C      -2.20545924      0.18656686      1.04802045
C      -3.40525542     -0.04532869      1.74475483
C      -4.02958922     -1.29054894      1.68173665
C      -3.46495136     -2.30858637      0.92008013
C      -2.27677571     -2.08023080      0.22178682
C      -1.62368878     -0.83422803      0.28361698
C      -0.39959091     -0.70260624     -0.56149247
O      -0.42383208     -1.25313897     -1.65837122
N       0.66648652     -0.01550564     -0.02047681
C       1.93391749      0.20563816     -0.60266814
C       2.33548122     -0.31474084     -1.83379154
C       3.61453258     -0.04687701     -2.33380969
C       4.50249060      0.74274359     -1.60716916
C       4.11275238      1.26653831     -0.37800869
C       2.83535855      0.99852124      0.12087352
H      -1.96955714      3.32608246      0.93515662
H      -3.85737437      0.74773295      2.33761863
H      -4.95846603     -1.46370594      2.22035820
H      -3.95205253     -3.27922415      0.85753079
H      -1.85885458     -2.88270476     -0.38619211
H       0.53226069      0.43487759      0.88322600
H       1.67817490     -0.93704412     -2.43203830
H       3.91269141     -0.45936447     -3.29432632
H       5.49475954      0.94846527     -1.99934442
H       4.80014503      1.88431622      0.19347027
H       2.55142639      1.42234562      1.08134508
