30
C[N+](C)(C)C(Cc1cnc(S)[nH]1)C(=O)[O-]
C      -0.90790871      1.96973806      1.13272000
N      -1.61676790      0.82354945      0.44901687
C      -2.38085527     -0.02710055      1.44935375
C      -2.61899018      1.39273907     -0.55790882
C      -0.55875959     -0.06371945     -0.39365809
C       0.44206859     -0.80893307      0.52305317
C       1.84166108     -0.78044091     -0.00601385
C       3.03959096     -0.35764450      0.53103174
N       4.06746833     -0.52520146     -0.36192908
C       3.51004981     -1.06283358     -1.41982041
S       4.30232054     -1.49779214     -2.88070556
N       2.17194675     -1.25144403     -1.26140196
C      -1.09367089     -1.17430714     -1.37025361
O      -0.27862029     -1.51627574     -2.27377715
O      -2.26614422     -1.57559098     -1.13804523
H      -0.34075419      2.52942117      0.38339599
H      -0.24282991      1.57914715      1.90540470
H      -1.65983989      2.61652241      1.59559680
H      -2.96276551     -0.79317153      0.93812079
H      -3.06087936      0.63271781      1.99822963
H      -1.67518268     -0.47960476      2.14930505
H      -3.26447482      2.10153567     -0.02916088
H      -2.06252451      1.90974235     -1.34515281
H      -3.23375841      0.59411556     -0.97462224
H      -0.04107067      0.68433077     -1.00966482
H       0.47482541     -0.37151814      1.52509404
H       0.14370475     -1.85581980      0.66739165
H       3.21989175      0.06286040      1.51189900
H       5.53345049     -1.13751377     -2.49399380
H       1.51881854     -1.61750834     -1.95784650
