46
CC1(C)[C@@H](C=C(Cl)Cl)[C@H]1C(=O)OCc1cccc(Oc2ccccc2)c1
C       4.41333435      1.30890480     -0.33891157
C       4.57455021     -0.02300012     -1.03707618
C       6.01054901     -0.32018136     -1.40235056
C       3.69257840     -1.20929269     -0.67858437
C       2.70551385     -1.12586219      0.41098640
C       1.65513174     -1.93506296      0.62353140
Cl      1.27179125     -3.24404127     -0.43384005
Cl      0.65910016     -1.72119715      2.01940716
C       3.49793709     -0.50344335     -2.00437223
C       2.30981125      0.31923762     -2.33155719
O       2.39502949      1.51118183     -2.58854374
O       1.18445746     -0.43446729     -2.37403012
C      -0.02228616      0.27310500     -2.67416308
C      -0.73522686      0.60386747     -1.39000435
C      -0.51308130      1.83025448     -0.74860219
C      -1.13880319      2.11832595      0.46522412
C      -1.99296218      1.18425627      1.05089446
C      -2.23061041     -0.03548812      0.41340862
O      -3.01518025     -1.03292559      0.94918418
C      -4.16727689     -0.65607582      1.59815339
C      -4.36856927     -1.15114575      2.88640334
C      -5.53626035     -0.82885319      3.57793852
C      -6.50576999     -0.02714443      2.97375113
C      -6.31280998      0.44730910      1.67521282
C      -5.14554160      0.12713732      0.98121456
C      -1.58912524     -0.33221409     -0.79058675
H       4.79970758      2.11596124     -0.97203275
H       4.97884362      1.31232752      0.59878713
H       3.37348075      1.54960516     -0.09862330
H       6.63217927     -0.35794194     -0.50133780
H       6.40524454      0.45950752     -2.06179324
H       6.11340849     -1.27988951     -1.92050635
H       4.16617411     -2.18946472     -0.72854450
H       2.87850269     -0.35048283      1.15477135
H       3.84960520     -1.04360418     -2.87985862
H      -0.64709937     -0.38783536     -3.28642145
H       0.14925434      1.17051843     -3.28111807
H       0.16276321      2.56344107     -1.18654657
H      -0.95113271      3.06708272      0.96117795
H      -2.45224838      1.41046237      2.00895720
H      -3.61459151     -1.78093002      3.35002144
H      -5.69203982     -1.20615262      4.58498448
H      -7.41658881      0.22142303      3.51257746
H      -7.07448611      1.06124985      1.20151704
H      -5.00568306      0.48417652     -0.03496418
H      -1.75157465     -1.30286219     -1.25373494
