24
ClCCCN1CCOCC1
Cl      3.67226007      0.91115385     -0.85589672
C       2.68715423     -0.57115855     -0.91808650
C       2.12486053     -0.94079410      0.45084888
C       1.08637055      0.04882436      0.99624841
N      -0.07844184      0.22476827      0.11410457
C      -0.96575475     -0.95978784      0.11260325
C      -2.22278795     -0.72066301     -0.74103467
O      -2.95749391      0.41876730     -0.27764355
C      -2.12543687      1.58521916     -0.32049377
C      -0.86964593      1.40101196      0.54523882
H       3.34200680     -1.37106079     -1.27702658
H       1.89850376     -0.42487264     -1.66159965
H       2.94731338     -1.01783489      1.17354359
H       1.68666086     -1.94373951      0.39182839
H       0.76783924     -0.27872554      1.99463965
H       1.58425993      1.01586687      1.13979524
H      -0.44169466     -1.83063647     -0.29386687
H      -1.27473594     -1.19613420      1.13913563
H      -1.96434622     -0.58017619     -1.79766551
H      -2.88510330     -1.58976326     -0.67445359
H      -2.71573627      2.42598338      0.05763240
H      -1.86236647      1.80510283     -1.36227607
H      -1.17444746      1.28024849      1.59316979
H      -0.25923778      2.30840052      0.47125486
