18
C=CCOCC1CO1
C       3.06845278      1.54459147      0.57643707
C       2.02311987      1.40812936     -0.25018030
C       1.33062775      0.11649419     -0.54329860
O      -0.04959505      0.29679689     -0.24285415
C      -0.79587935     -0.89313798     -0.48793555
C      -2.22493596     -0.62175687     -0.16553289
C      -2.75248616     -0.78334424      1.23387130
O      -2.98638137     -1.77327568      0.21911616
H       3.51656491      2.51905084      0.74527667
H       3.49301891      0.69824296      1.10694353
H       1.62798046      2.28775437     -0.75285337
H       1.44867639     -0.12548398     -1.60537545
H       1.73949726     -0.70278706      0.05908484
H      -0.70767653     -1.17271302     -1.54376990
H      -0.39903897     -1.70912643      0.12770521
H      -2.68406384      0.10657325     -0.81920609
H      -2.05701601     -1.02653542      2.02724032
H      -3.59086507     -0.16947263      1.53759919
