52
CCCCCOC(=O)COc1cc(N2C(=O)C3=C(CCCC3)C2=O)c(F)cc1Cl
C       8.01048023      1.47138645     -0.59430824
C       6.97163754      1.18795307      0.47906834
C       5.55790300      1.49621290     -0.01431365
C       4.51646067      1.21168984      1.07163978
C       3.09933303      1.55829632      0.61876130
O       2.72479993      0.80226883     -0.54301738
C       2.21831899     -0.44340938     -0.30455863
O       2.06875977     -0.94071430      0.80323122
C       1.85373480     -1.10207213     -1.63106761
O       1.42495036     -2.45456997     -1.53212771
C       0.09400247     -2.70908123     -1.32982765
C      -0.81186671     -1.78580414     -0.78683738
C      -2.16555742     -2.11276080     -0.57786487
N      -3.06298117     -1.16098405     -0.01810408
C      -4.17295847     -1.46497974      0.73179712
O      -4.58972951     -2.52919563      1.15288698
C      -4.80391613     -0.19073653      1.08872620
C      -4.04150277      0.79699133      0.62386982
C      -4.32819888      2.24223438      0.78259010
C      -5.76727328      2.46070392      1.28273318
C      -6.17112785      1.44739711      2.36602205
C      -6.04104237     -0.00903588      1.88516980
C      -2.90394460      0.20076350     -0.07874011
O      -2.04001937      0.87516038     -0.61458976
C      -2.58568086     -3.39701686     -0.95254855
F      -3.87996769     -3.74137655     -0.91386624
C      -1.69908417     -4.33426561     -1.47627553
C      -0.36176037     -3.99413960     -1.65568656
Cl      0.69763020     -5.18710925     -2.32033799
H       7.83398754      0.85724337     -1.48303328
H       9.01381209      1.24641565     -0.21974100
H       7.98803936      2.52395470     -0.89366064
H       7.04063871      0.13530664      0.77751362
H       7.19691417      1.79213044      1.36568188
H       5.49553316      2.54882216     -0.31510595
H       5.34402174      0.89245544     -0.90405889
H       4.56871007      0.15032281      1.34116452
H       4.75282492      1.79085950      1.97197121
H       3.04203649      2.61697773      0.34315962
H       2.37937337      1.40582961      1.43163827
H       1.12102491     -0.48653435     -2.16675600
H       2.76814694     -1.12021987     -2.23517937
H      -0.45224204     -0.81401864     -0.46787974
H      -4.19162850      2.77222769     -0.16644951
H      -3.62123311      2.66995919      1.50310808
H      -5.86884295      3.48107662      1.66966111
H      -6.46212275      2.37184458      0.43742010
H      -5.53279313      1.59648194      3.24665285
H      -7.20191558      1.63552487      2.68695022
H      -6.04793904     -0.67715233      2.75334581
H      -6.90640466     -0.26799459      1.26391863
H      -2.07134107     -5.31531955     -1.75597948
