18
Cn1c(=O)ncc2[nH]c(=O)[nH]c21
C      -1.81408350     -1.50819934      0.01661725
N      -1.13080973     -0.22965721      0.05855253
C      -1.87488029      0.96048183      0.18806170
O      -3.10043892      0.93486476      0.26666628
N      -1.19778831      2.17140982      0.22581579
C       0.09257789      2.18284752      0.14200076
C       0.89123653      0.98317087      0.00826601
N       2.22923061      0.77300227     -0.09370346
C       2.43175990     -0.61572068     -0.20118192
O       3.49025525     -1.20218603     -0.31035380
N       1.13903151     -1.17699853     -0.15450979
C       0.22668255     -0.16883407     -0.02631301
H      -1.46709921     -2.12724543      0.85023208
H      -1.58384409     -2.00644411     -0.93062716
H      -2.89884500     -1.39924231      0.09511998
H       0.63593113      3.14019598      0.17132099
H       2.97170357      1.45474616     -0.09613160
H       0.95938012     -2.16619153     -0.20983265
