38
CC(=O)CCCCn1c(=O)c2c(ncn2C)n(C)c1=O
C       4.48949332     -0.32794327     -1.59400032
C       4.15894652      0.37546254     -0.30424268
O       4.20859772      1.60214974     -0.21602035
C       3.82787066     -0.50938611      0.88585592
C       2.91859720      0.17489050      1.90956523
C       1.51122096      0.47576178      1.38288336
C       0.64219488     -0.77858437      1.23679559
N      -0.54594231     -0.50932483      0.43607676
C      -1.68917812     -0.06442736      1.10871860
O      -1.75804204      0.09181479      2.32440213
C      -2.77683873      0.19615190      0.23320983
C      -2.69757878      0.05137037     -1.11854305
N      -3.87172093      0.36481693     -1.73372894
C      -4.67723728      0.70800770     -0.74800123
N      -4.05245818      0.62208674      0.46810193
C      -4.63700068      0.92824543      1.74896219
N      -1.54094036     -0.35667081     -1.73788180
C      -1.48907207     -0.46029240     -3.18470514
C      -0.41118830     -0.62652350     -0.96510982
O       0.66619470     -0.95207522     -1.47528006
H       4.69741401      0.40997674     -2.37373948
H       3.63936647     -0.93869162     -1.90743911
H       5.37327518     -0.95462672     -1.45218082
H       4.77896198     -0.77614612      1.36053105
H       3.37247099     -1.43574424      0.52408355
H       3.37910297      1.11797764      2.22869708
H       2.84511394     -0.45601218      2.80347702
H       1.01412618      1.16360686      2.07871065
H       1.57642097      1.01153067      0.42880488
H       0.34804615     -1.13704483      2.23042155
H       1.20001414     -1.59438413      0.76699704
H      -5.70715820      1.02346077     -0.85955028
H      -4.06785755      1.74171672      2.20568308
H      -4.59988675      0.03116453      2.37196253
H      -5.67614245      1.23784320      1.61085172
H      -0.53118556     -0.85816250     -3.52993513
H      -1.63133369      0.53514442     -3.61709487
H      -2.28666696     -1.12713976     -3.52733862
