31
CCC1(c2ccccc2)CCC(=O)NC1=O
C      -0.60624693      2.81357003     -0.03032260
C      -0.77683117      1.67836370     -1.03491062
C      -0.64862873      0.23211001     -0.46072673
C       0.80651517      0.01033682      0.00359823
C       1.81849856     -0.24850913     -0.94259930
C       3.14680866     -0.43951672     -0.55367955
C       3.49827698     -0.36141113      0.78891695
C       2.52330827     -0.08110937      1.74012623
C       1.19366967      0.11043882      1.35155376
C      -1.73083860      0.00014166      0.62497962
C      -1.78456791     -1.45007609      1.09265484
C      -1.95060532     -2.39271934     -0.06812648
O      -2.59727045     -3.43296303      0.01656253
N      -1.33081068     -2.03944108     -1.23514276
C      -0.99945467     -0.75827632     -1.60215811
O      -0.97909361     -0.46042589     -2.79628282
H      -0.70574069      3.77640656     -0.54290903
H      -1.36975516      2.78143283      0.75158513
H       0.38013774      2.79480486      0.44086581
H      -0.04704377      1.82926592     -1.84192728
H      -1.76340096      1.79367497     -1.50459175
H       1.59070737     -0.29504006     -2.00717769
H       3.90695181     -0.64220482     -1.30411610
H       4.53164344     -0.50705332      1.09191095
H       2.79795723     -0.00310031      2.78930067
H       0.47727112      0.35114426      2.13208699
H      -1.59050134      0.64934319      1.49534942
H      -2.71470056      0.25991419      0.20823836
H      -2.64200557     -1.57611601      1.76347923
H      -0.88704849     -1.74279651      1.64495850
H      -1.54720142     -2.65018867     -2.01149637
