57
CC(C)(C)c1ccc2oc(-c3ccc(-c4nc5cc(C(C)(C)C)ccc5o4)s3)nc2c1
C       9.62425127      0.37151231      0.66919890
C       8.59661265     -0.10467082     -0.38221843
C       8.87580870     -1.59990228     -0.64765035
C       8.86063493      0.69895282     -1.67396252
C       7.12786978      0.07876701      0.05038547
C       6.77069328      0.63393008      1.29920036
C       5.43523212      0.80438469      1.70076025
C       4.47485177      0.39214907      0.79157869
O       3.12212226      0.44625890      0.93278860
C       2.63207911     -0.08196863     -0.24316648
C       1.22965469     -0.21935107     -0.53015813
C       0.66555002     -0.73646880     -1.68015062
C      -0.75954887     -0.72695342     -1.63775669
C      -1.24735254     -0.20281159     -0.45647216
C      -2.62827323     -0.04684479     -0.08668136
N      -3.62966950     -0.40653198     -0.87753400
C      -4.75626529     -0.09397041     -0.16074051
C      -6.11771327     -0.24079208     -0.46945709
C      -7.09373571      0.17066001      0.46661683
C      -8.60375709      0.03515143      0.18543879
C      -8.92942888     -0.58257991     -1.19342804
C      -9.26690294      1.42875026      0.22852452
C      -9.25170847     -0.87040369      1.25495487
C      -6.65369559      0.72202599      1.69512659
C      -5.29743871      0.87636053      2.02074594
C      -4.39985373      0.45143793      1.05566066
O      -3.04047037      0.48734218      1.11596044
S       0.02643065      0.27033094      0.58451797
N       3.57984009     -0.45470538     -1.09209347
C       4.75053992     -0.15739083     -0.44343811
C       6.08885464     -0.32025803     -0.82804351
H       9.52439779     -0.18139908      1.61049884
H      10.65100526      0.22007316      0.31481161
H       9.51369503      1.44028909      0.88650352
H       8.26467238     -1.99730703     -1.46536365
H       8.66684147     -2.20420226      0.24309168
H       9.92425052     -1.76338483     -0.92326940
H       9.90855545      0.61443410     -1.98483668
H       8.24918557      0.34875314     -2.51274952
H       8.64065727      1.76319533     -1.52813185
H       7.53338624      0.95452975      2.00604519
H       5.16948187      1.23080691      2.65985318
H       1.25226752     -1.10504217     -2.51442726
H      -1.39968419     -1.08733535     -2.43553664
H      -6.37154974     -0.67144411     -1.43032992
H      -8.51988182     -1.59494370     -1.28907280
H      -8.53060287      0.02655498     -2.01297051
H     -10.01275488     -0.65807667     -1.34649220
H     -10.33624616      1.36494663     -0.00462474
H      -9.18228966      1.89835750      1.21457335
H      -8.80657874      2.10714614     -0.49958823
H      -9.16677121     -0.44888956      2.26247361
H      -8.78036445     -1.86026481      1.27160975
H     -10.32053149     -1.01316075      1.05705965
H      -7.38285191      1.04817858      2.43648158
H      -4.97068631      1.29886097      2.96228004
H       6.29718539     -0.75308637     -1.80063386
