6
CC#N
C      -0.48623795     -0.00825984      0.00353389
C       0.97542850      0.01657030     -0.00708901
N       2.13547816      0.03627611     -0.01551994
H      -0.86933218     -0.67583259     -0.77396750
H      -0.86203090     -0.36000881      0.96892263
H      -0.89330563      0.99125483     -0.17588008
