44
CC(=O)Nc1ccc(Nc2ncc3cc(-c4ccncc4)ccc3n2)cc1
C      -8.50692166     -1.13731396      1.78216591
C      -7.58392256     -0.70741446      0.66883906
O      -8.03438193     -0.34238133     -0.41105698
N      -6.25383155     -0.75858207      1.04443345
C      -5.12822761     -0.42609993      0.26377353
C      -5.19214079      0.00921714     -1.05631171
C      -4.01833904      0.31789938     -1.75874445
C      -2.75167269      0.20186115     -1.16737267
N      -1.62555465      0.52565254     -1.92837318
C      -0.25565610      0.52760579     -1.68479634
N       0.49631581      0.92955373     -2.72193189
C       1.83007217      0.95023167     -2.53976268
C       2.45291410      0.58599030     -1.35997867
C       3.85134974      0.60828922     -1.16797099
C       4.41326758      0.22045058      0.05591853
C       5.86823400      0.23783352      0.26634628
C       6.61975586      1.39661338      0.03785281
C       7.98932143      1.36387477      0.25093503
N       8.65770724      0.26934637      0.66753907
C       7.92317573     -0.84069218      0.88374581
C       6.55023193     -0.90435158      0.70219645
C       3.53761918     -0.18553281      1.07115137
C       2.15091137     -0.19952524      0.86432898
C       1.58825762      0.18257534     -0.34511135
N       0.25843986      0.15413327     -0.50303362
C      -2.70217897     -0.23711627      0.15640239
C      -3.87226367     -0.54729800      0.86441711
H      -8.69158980     -0.28951126      2.44699880
H      -9.45492312     -1.47874178      1.35643285
H      -8.07442743     -1.96490488      2.35182775
H      -6.05895833     -1.06158527      1.99006616
H      -6.13764399      0.12160833     -1.57714888
H      -4.11296226      0.65453394     -2.78883636
H      -1.78704149      0.83977152     -2.87412607
H       2.39996135      1.28077106     -3.40362385
H       4.49988316      0.91814655     -1.98584610
H       6.15059775      2.31935823     -0.28802394
H       8.60173692      2.24634231      0.08854722
H       8.48397670     -1.70958004      1.21645022
H       6.02792769     -1.83747098      0.88789103
H       3.92346059     -0.48504837      2.04415401
H       1.49489614     -0.51568542      1.67243191
H      -1.75314350     -0.34868424      0.67127990
H      -3.77423276     -0.88414002      1.89284597
