54
CC(=O)OC1CCC2C3CCC4=CC(=O)CCC4(C)C3CCC12C
C       5.83988362     -1.74906667      0.56007156
C       5.05991010     -0.47018968      0.58012889
O       5.27002558      0.45208321      1.35414209
O       4.09834010     -0.50265803     -0.38136749
C       3.25381410      0.64881867     -0.47615705
C       2.83616493      0.83654845     -1.92776455
C       1.66222025      1.79125031     -1.82451047
C       0.91577839      1.39452033     -0.53171727
C      -0.45976582      0.74060486     -0.84460085
C      -1.46267426      1.83743887     -1.25537578
C      -2.84710664      1.27750500     -1.54173457
C      -3.37624872      0.48300996     -0.37413271
C      -4.60268646      0.74015707      0.11424492
C      -5.21506322     -0.10728079      1.16383044
O      -6.32304468      0.18498001      1.60664523
C      -4.48283340     -1.35568528      1.58178963
C      -2.97945278     -1.12536399      1.54107915
C      -2.46249259     -0.62347092      0.16055711
C      -2.50881070     -1.78839407     -0.85742777
C      -1.00265224     -0.05828696      0.36610271
C       0.00045175     -1.13331386      0.84518984
C       1.41340981     -0.97106626      0.28891889
C       1.90088389      0.48956827      0.27139256
C       2.04963214      0.99867426      1.71818359
H       6.61165328     -1.71523251      1.33437577
H       5.17503990     -2.59132208      0.76756600
H       6.32605927     -1.87177265     -0.41097359
H       3.78217882      1.55821927     -0.15784198
H       3.64987609      1.24191584     -2.53766216
H       2.53707506     -0.11389229     -2.38513085
H       2.03465908      2.81846938     -1.72387756
H       1.04386363      1.75682753     -2.72605449
H       0.73142055      2.31746594      0.03579845
H      -0.33716315      0.05230204     -1.69151092
H      -1.10662992      2.36473365     -2.14766057
H      -1.53810400      2.58919308     -0.45821520
H      -3.51882549      2.10735366     -1.79365149
H      -2.80839322      0.63355156     -2.42863659
H      -5.23575955      1.53314522     -0.26864064
H      -4.78565966     -2.17807506      0.92608783
H      -4.78054704     -1.60687425      2.60578053
H      -2.47053929     -2.05248145      1.83149632
H      -2.73225680     -0.38431657      2.31446644
H      -3.53923007     -2.02870747     -1.14632817
H      -1.96630271     -1.55218284     -1.77835229
H      -2.07918640     -2.70924083     -0.45118504
H      -1.07111141      0.67595856      1.18504830
H      -0.32893047     -2.14571172      0.59701627
H       0.03722551     -1.10838510      1.94212313
H       1.42965607     -1.38328274     -0.72824343
H       2.09385551     -1.59977687      0.87704802
H       2.70284419      0.34400047      2.30435772
H       2.47991770      2.00635890      1.74156208
H       1.08563133      1.05137659      2.23375001
