59
C=CC(=O)OCCOc1ccc(C(C)(C)c2ccc(OCCOC(=O)C=C)cc2)cc1
C       8.15380025      3.62884304     -1.92225539
C       7.73042141      2.65471915     -2.74343351
C       6.78501070      1.62151074     -2.26904370
O       6.36114925      1.52077834     -1.13098595
O       6.46643288      0.82953330     -3.32209547
C       5.52383743     -0.21354345     -3.03081809
C       4.09441578      0.31884516     -3.05910100
O       3.15550488     -0.73308584     -2.83201809
C       2.63342604     -0.84760426     -1.57452740
C       1.43266127     -1.55072691     -1.49752536
C       0.79263784     -1.73068749     -0.26810818
C       1.33889218     -1.21652719      0.92375300
C       0.58426630     -1.41905058      2.25967508
C       1.23444631     -0.68731954      3.46363346
C       0.66925609     -2.93412668      2.58721607
C      -0.86452864     -0.88268844      2.15315664
C      -1.08633978      0.44828672      1.74891117
C      -2.38009653      0.96376994      1.62893613
C      -3.48872358      0.16461205      1.89992302
O      -4.69920589      0.77911895      1.73775950
C      -5.83687730     -0.08099902      1.60717606
C      -7.04084185      0.76876613      1.19469503
O      -6.87074830      1.33140491     -0.11873858
C      -7.09691743      0.48115914     -1.14751258
O      -7.43306433     -0.69001768     -1.04859310
C      -6.88503759      1.13239378     -2.45931890
C      -6.57110702      2.42355211     -2.63705431
C      -3.29100232     -1.14825041      2.31697177
C      -1.99384258     -1.66668068      2.44378922
C       2.56293643     -0.53613607      0.83050865
C       3.20512712     -0.35606398     -0.40339285
H       7.82202963      3.68769830     -0.88718799
H       8.84043863      4.38993721     -2.27282620
H       8.06018108      2.59615950     -3.77520341
H       5.76281786     -0.70744407     -2.08386355
H       5.64241714     -0.98171704     -3.80047159
H       3.89245501      0.71226379     -4.06427202
H       3.94731676      1.17969101     -2.39493688
H       0.98058241     -1.95181549     -2.40106246
H      -0.15416867     -2.26684292     -0.25220066
H       2.24462753     -1.06307644      3.66755575
H       1.31139643      0.39444329      3.30089176
H       0.64556465     -0.83314096      4.37819846
H       1.71333146     -3.26961281      2.63398087
H       0.21295833     -3.16498738      3.55798291
H       0.16697300     -3.55180106      1.83309339
H      -0.24685638      1.09532109      1.50396789
H      -2.52096813      1.99106206      1.30378404
H      -6.05332053     -0.54981341      2.57385861
H      -5.63706950     -0.84885218      0.85154687
H      -7.15302286      1.61506272      1.87919251
H      -7.96720184      0.18658983      1.23580447
H      -7.00494595      0.47392063     -3.31478326
H      -6.43249727      2.82205520     -3.63552868
H      -6.44337560      3.10712589     -1.80221651
H      -4.12454600     -1.79970964      2.55894321
H      -1.89731194     -2.69924354      2.76833929
H       3.05156665     -0.12603538      1.71181364
H       4.15473911      0.17066052     -0.40598280
