14
C=COC1CC1
C       2.82354045      0.08673207      0.05735080
C       1.54107283      0.44411101     -0.02362220
O       0.57301362     -0.43326198     -0.43790967
C      -0.73266828      0.17546260     -0.48685447
C      -1.56760674      0.07829236      0.76109767
C      -1.88405160     -0.79115411     -0.42021100
H       3.13752879     -0.91731833     -0.20768024
H       3.57902304      0.78937954      0.38954390
H       1.19220798      1.43458828      0.23526650
H      -0.87051542      1.03713707     -1.13428060
H      -1.12794373     -0.39173110      1.63308610
H      -2.23831829      0.89866081      0.98502197
H      -1.65552659     -1.84829019     -0.35055878
H      -2.76975607     -0.56260803     -1.00024998
