30
CP(=O)(Oc1ccccc1)Oc1ccccc1
C      -0.66935088     -2.58251483      1.23880855
P       0.06843335     -0.96058961      1.14677709
O       0.01471179     -0.18432056      2.43165880
O      -0.63388867     -0.26919565     -0.12923892
C      -1.94008582      0.12166732     -0.19328571
C      -2.44971797      0.33543596     -1.47482599
C      -3.77588138      0.73331842     -1.64670247
C      -4.59257473      0.92516196     -0.53425242
C      -4.08004107      0.72442293      0.74694686
C      -2.75210687      0.32513763      0.91943245
O       1.55812503     -1.28873506      0.61947013
C       2.49317945     -0.34774746      0.29254062
C       3.67555786     -0.83142056     -0.27000988
C       4.69024062      0.05158239     -0.64147104
C       4.52379678      1.42143328     -0.44795481
C       3.34477390      1.90505065      0.11814582
C       2.32832326      1.02127750      0.48994297
H      -0.15474866     -3.18959493      1.98893285
H      -1.72431659     -2.51923989      1.51800827
H      -0.59829428     -3.09548856      0.27546500
H      -1.81317111      0.19143690     -2.34418165
H      -4.16915500      0.89711968     -2.64653346
H      -5.62507441      1.23936825     -0.66419987
H      -4.71272527      0.88788449      1.61608281
H      -2.37974691      0.20153164      1.93171313
H       3.80912832     -1.89918336     -0.42093753
H       5.60906288     -0.32912021     -1.07928259
H       5.31273756      2.11210786     -0.73413693
H       3.21569724      2.97306492      0.27535541
H       1.42711158      1.43014891      0.93715397
