18
S=C([S-])NCCNC(=S)[S-].[Na+].[Na+]
S       3.45570857     -1.73932968      0.60285424
C       3.07491239     -0.09392198      0.55379115
S       4.22045064      1.15181851      0.69165339
N       1.83929610      0.37994948      0.40223271
C       0.63804643     -0.42807705      0.25688507
C      -0.63804656      0.42807698      0.09978296
N      -1.83929600     -0.37994962     -0.04556711
C      -3.07491215      0.09392209     -0.19712632
S      -4.22045061     -1.15181853     -0.33498855
S      -3.45570816      1.73933021     -0.24619081
Na      0.00000000      0.00000000      0.00000000
Na      0.00000000      0.00000000      0.00000000
H       1.71646664      1.38319347      0.38566664
H       0.53225993     -1.06265811      1.14441091
H       0.74859970     -1.06544808     -0.62805690
H      -0.74860090      1.06544655      0.98472582
H      -0.53225941      1.06265964     -0.78774176
H      -1.71646661     -1.38319389     -0.02899989
