43
CCCCCCCCOC(=O)COc1ccc(Cl)cc1Cl
C       7.38564875      1.47799489     -0.23384917
C       6.43247889      1.13025474      0.89851969
C       5.18184554      0.41896797      0.37987277
C       4.22570822      0.07559396      1.52424630
C       3.00891162     -0.73987988      1.07750053
C       2.06913925      0.02939205      0.14662066
C       0.81791177     -0.78729569     -0.17392914
C      -0.12228003     -0.03001441     -1.10694437
O      -1.26120361     -0.84600863     -1.42652471
C      -2.30119705     -0.78726384     -0.54193227
O      -2.32601633     -0.09372563      0.46487716
C      -3.42101180     -1.70520438     -1.02266117
O      -4.54255621     -1.80588345     -0.15870783
C      -5.51350831     -0.84183541     -0.20361425
C      -5.40775100      0.36635188     -0.90037537
C      -6.45737199      1.29195498     -0.87488091
C      -7.61519107      1.01642292     -0.15158041
Cl     -8.89953695      2.16029398     -0.12871246
C      -7.73757843     -0.17599366      0.55202004
C      -6.68876668     -1.09851782      0.52654356
Cl     -6.89121808     -2.57120348      1.41334636
H       6.90717287      2.14409892     -0.95890116
H       8.27243524      1.98484999      0.15936149
H       7.71496228      0.57642034     -0.76019892
H       6.95222774      0.49097438      1.62162246
H       6.14715172      2.04924093      1.42367369
H       4.67965665      1.06492014     -0.34887500
H       5.47286386     -0.49910745     -0.14465864
H       4.76724482     -0.50661041      2.28025568
H       3.89052805      0.99678003      2.01626394
H       3.34400884     -1.66173240      0.58667847
H       2.45443569     -1.04368629      1.97418683
H       1.77811140      0.97593268      0.61774285
H       2.58455444      0.27552486     -0.78833735
H       1.09586842     -1.74188345     -0.63788776
H       0.29087388     -1.04664169      0.75213116
H       0.38420074      0.18875449     -2.05335234
H      -0.43335935      0.93168913     -0.68174603
H      -3.72638934     -1.42709118     -2.03815639
H      -2.99405308     -2.71328352     -1.07923031
H      -4.51907997      0.63482968     -1.46143839
H      -6.35972253      2.22981707     -1.41688458
H      -8.64014887     -0.38819735      1.11808336
