9
O=C(O)C(Cl)=C(Br)Br
O       1.12668766      1.48969613      0.44728540
C       0.92667885      0.30076267      0.27638381
O       1.94845506     -0.54931416      0.06075242
C      -0.38079229     -0.38604784      0.27460039
Cl     -0.45673872     -1.82738950      1.24128680
C      -1.42665871      0.08931142     -0.42517877
Br     -3.12196316     -0.74204365     -0.43754427
Br     -1.36473417      1.60966969     -1.53582090
H       2.74906548      0.01535522      0.09823513
