15
N#CC1CCCC1=O
N       3.11638826     -0.22031179      0.54000047
C       2.12333613     -0.19571205     -0.06005649
C       0.85651346     -0.21163426     -0.79213321
C      -0.16223874     -1.16802986     -0.16570376
C      -0.87154033     -0.34359727      0.90376229
C      -1.04523851      1.02988714      0.27072294
C       0.15182145      1.11265024     -0.64353585
O       0.49243642      2.14260827     -1.21321492
H       1.00230241     -0.44628025     -1.85045346
H       0.28985137     -2.07416186      0.25109120
H      -0.89291167     -1.47692997     -0.92441946
H      -0.24507502     -0.26961005      1.80100517
H      -1.82869919     -0.78348721      1.19908220
H      -1.95590682      1.07762367     -0.33314908
H      -1.03103921      1.82698525      1.01700195
