10
N#CCCO
N       2.14478009      0.59139382      1.33218924
C       1.50485261      0.14877679      0.47074483
C       0.70629542     -0.45521822     -0.60394900
C      -0.77375945     -0.14336573     -0.42794694
O      -1.04616442      1.18768609     -0.85231463
H       0.85080105     -1.54110750     -0.58015604
H       1.06032573     -0.08905398     -1.57395271
H      -1.36991695     -0.81409481     -1.05507675
H      -1.09594081     -0.25771281      0.61276086
H      -1.98127326      1.37269635     -0.65362975
