19
OC1CCCCC1
O      -1.58729958     -2.04134291     -0.31890098
C      -0.78662506     -1.00136081      0.23195350
C      -1.37132795      0.34307094     -0.19589205
C      -0.50085325      1.50779177      0.26409109
C       0.94301798      1.34929638     -0.20592648
C       1.53026902      0.00492721      0.21666625
C       0.65737371     -1.15825484     -0.24272661
H      -1.20373704     -2.88831350     -0.03410792
H      -0.83168491     -1.08766624      1.32420595
H      -1.48086999      0.36835803     -1.28804886
H      -2.38623109      0.45044806      0.20561835
H      -0.52315579      1.56944437      1.35908061
H      -0.91176023      2.44922348     -0.11744363
H       0.98132325      1.43552738     -1.29888372
H       1.55447935      2.16287208      0.20026235
H       2.53869312     -0.10381801     -0.19802095
H       1.62883222     -0.02257676      1.30883989
H       1.06928580     -2.10496009      0.12703206
H       0.68027042     -1.23266653     -1.33779887
