48
C=C(C)CC(C)(C)C.c1ccc(Nc2ccccc2)cc1
C       2.41418600      0.21718099      0.89152952
C       1.63172856     -0.24298510     -0.09920734
C       2.09178659     -0.21132192     -1.53079256
C       0.29923645     -0.90786939      0.18533922
C      -0.96821396     -0.00488800      0.21301891
C      -0.87602758      1.05385273      1.32580038
C      -2.18641009     -0.90616189      0.50178201
C      -1.19968929      0.70244323     -1.13140583
C       3.81095101     -0.19062736     -1.18122499
C       3.56025136      1.09153127     -0.70120429
C       2.31054898      1.40181090     -0.15701429
C       1.29414628      0.43825011     -0.07868261
N       0.04285339      0.81111538      0.44198771
C      -1.25433594      0.31539414      0.22423271
C      -2.21247028      0.45356055      1.23939163
C      -3.50545737     -0.05550086      1.08703275
C      -3.85889725     -0.71694476     -0.08547482
C      -2.91977406     -0.86833477     -1.10186886
C      -1.62701071     -0.35914705     -0.94372086
C       1.56344853     -0.84267667     -0.57336551
C       2.81262218     -1.15867016     -1.11672104
H       2.10405507      0.16289171      1.93083297
H       3.38449542      0.66194017      0.69231289
H       1.41846919      0.38485835     -2.15097146
H       3.09427842      0.21923185     -1.62883495
H       2.12966362     -1.22679576     -1.93860753
H       0.37483235     -1.42744116      1.15198311
H       0.15448138     -1.71267840     -0.54897462
H      -0.68440072      0.58898087      2.29931027
H      -0.07666357      1.77673025      1.13254271
H      -1.81067971      1.62071111      1.40814128
H      -2.30747005     -1.66840453     -0.27622907
H      -3.11330340     -0.32270144      0.54181154
H      -2.07826222     -1.42240083      1.46239814
H      -2.16476715      1.22242361     -1.14189559
H      -1.20076982     -0.01340262     -1.96071222
H      -0.43055551      1.45580617     -1.32917179
H       4.78139561     -0.43535758     -1.60441339
H       4.33337786      1.85333450     -0.75364756
H       2.13140460      2.41383567      0.19687346
H       0.08362307      1.58234436      1.09776268
H      -1.95346914      0.95215237      2.16990116
H      -4.23212422      0.06122018      1.88650171
H      -4.86321468     -1.11345627     -0.20741455
H      -3.19031102     -1.37873961     -2.02233895
H      -0.92205905     -0.46732392     -1.76341599
H       0.81143276     -1.62438164     -0.51036956
H       3.00306808     -2.16338878     -1.48447051
