44
CCOC(=O)CCCCCCCCC(=O)OCC
C      -5.34194496      1.96362370     -2.55348305
C      -4.61106661      0.63667955     -2.49129205
O      -4.79306381      0.08722476     -1.18104918
C      -4.17187226     -1.10833737     -0.98683364
O      -3.50916884     -1.70610237     -1.82361087
C      -4.40802160     -1.60380315      0.41752463
C      -3.63733730     -0.79433211      1.45634495
C      -2.12320354     -1.00830447      1.35862019
C      -1.38173493     -0.21262687      2.43558814
C       0.12592655     -0.48044153      2.46085031
C       0.84971511     -0.00954111      1.19742673
C       2.36339535     -0.19097035      1.32635535
C       3.08815869      0.26768608      0.06216980
C       4.58488428      0.09707865      0.17640087
O       5.17970471     -0.33507266      1.15310820
O       5.17525697      0.50432943     -0.98360366
C       6.60293375      0.38536383     -0.98856039
C       7.11377491      0.86955466     -2.33154911
H      -6.40803859      1.82672088     -2.34420075
H      -4.95468036      2.65275858     -1.79568739
H      -5.23163706      2.42408032     -3.53921741
H      -5.02365558     -0.04878751     -3.23998903
H      -3.54341404      0.79350715     -2.68187541
H      -5.48494211     -1.55655829      0.61729504
H      -4.12988904     -2.66295451      0.46429250
H      -3.97889959     -1.09516245      2.45421634
H      -3.86408326      0.27323443      1.34848828
H      -1.89607867     -2.07551840      1.46815006
H      -1.77589746     -0.70080977      0.36661610
H      -1.79080125     -0.47352314      3.41959622
H      -1.56209225      0.85986094      2.29322539
H       0.54955657      0.03738161      3.33040795
H       0.30619102     -1.55157988      2.61316248
H       0.62123461      1.04729813      1.01445252
H       0.49520918     -0.57496864      0.32846910
H       2.59403942     -1.24574714      1.52176672
H       2.73186779      0.37736983      2.18954250
H       2.87850302      1.32739600     -0.12129402
H       2.74185519     -0.31935422     -0.79582704
H       7.02799366      1.00053634     -0.18756944
H       6.88725654     -0.66248906     -0.84066415
H       6.68106153      0.27753484     -3.14480035
H       8.20373658      0.79765478     -2.38341931
H       6.81926770      1.91011049     -2.50363816
