38
CCN(CC)c1ccc(N=Nc2ccccc2)cc1
C      -4.03554675     -1.77032397     -2.20081399
C      -3.79671458     -0.29443316     -1.91548141
N      -3.31431045     -0.09420512     -0.54240544
C      -4.35111944      0.15961867      0.46680807
C      -4.60296005      1.65187283      0.62967597
C      -1.96154484     -0.13110902     -0.22121524
C      -0.97664580     -0.50029131     -1.15460245
C       0.39029249     -0.53870673     -0.83516056
C       0.83430806     -0.19608058      0.44054596
N       2.19078973     -0.25197966      0.80838505
N       2.88114541      0.49314817      0.07811903
C       4.23528587      0.44381867      0.45696018
C       4.97954236     -0.74220725      0.39314103
C       6.33099684     -0.75437818      0.74583871
C       6.95304642      0.42358016      1.15680610
C       6.22686014      1.61240793      1.21206974
C       4.87536663      1.62107418      0.85882581
C      -0.11832271      0.16000419      1.38935669
C      -1.48331500      0.19430153      1.06063089
H      -3.11732105     -2.35699836     -2.10196211
H      -4.41383437     -1.90154086     -3.21942475
H      -4.77293332     -2.19024391     -1.50867885
H      -4.74416575      0.24179841     -2.05540972
H      -3.11734483      0.14370369     -2.65515588
H      -4.10660966     -0.30469338      1.42869062
H      -5.29027008     -0.31734391      0.15808544
H      -5.39188012      1.82307345      1.36872431
H      -4.92111973      2.10259152     -0.31622250
H      -3.70548268      2.18140722      0.96315841
H      -1.24259505     -0.78600854     -2.16723872
H       1.10814972     -0.84074461     -1.59294500
H       4.49862103     -1.66073681      0.06722229
H       6.89592303     -1.68155409      0.69775574
H       8.00489179      0.41569083      1.43144675
H       6.71094243      2.53276073      1.52799258
H       4.31186276      2.54962242      0.89862004
H       0.19744707      0.41999582      2.39614049
H      -2.16143554      0.49786241      1.85171671
