17
COC(=O)c1cccnc1
C       3.20058103      0.50697683      0.00576082
O       1.77890567      0.61772181      0.09515843
C       1.12188451     -0.55099111     -0.11024625
O       1.63804772     -1.62986744     -0.35277554
C      -0.33908432     -0.35089414     -0.00092183
C      -0.93596604      0.88208127      0.27657925
C      -2.32505171      0.96758971      0.35934157
C      -3.06998503     -0.18443319      0.16145048
N      -2.52620030     -1.39094352     -0.10819866
C      -1.17220437     -1.44746785     -0.18344280
H       3.58027945     -0.17922181      0.76926546
H       3.49713454      0.17758081     -0.99500575
H       3.62912245      1.49676119      0.18573793
H      -0.33657623      1.77537032      0.42899976
H      -2.81506739      1.91133187      0.57331148
H      -4.15513904     -0.16708922      0.21610235
H      -0.77068094     -2.43450555     -0.40199523
