21
Cc1nc2nc[nH]c(=O)c2nc1C
C      -2.53127223      1.53943360      0.13413164
C      -1.24946999      0.76427171      0.06579786
N      -0.11565360      1.49343833     -0.12777415
C       1.04265337      0.80262945     -0.19043441
N       2.19243216      1.58185022     -0.39047661
C       3.31522760      0.95671109     -0.45540385
N       3.44468966     -0.39801883     -0.34220083
C       2.37422352     -1.24195121     -0.14480976
O       2.53715695     -2.45287171     -0.04882450
C       1.05463033     -0.58038475     -0.06162191
N      -0.05975179     -1.33241297      0.13195694
C      -1.22179785     -0.63425867      0.19433856
C      -2.47068978     -1.43595859      0.40741316
H      -3.21061114      1.22590508     -0.66429714
H      -2.34350129      2.61143038      0.01258156
H      -3.01571427      1.39228729      1.10415938
H       4.26772397      1.48777739     -0.61035286
H       4.35187373     -0.84035623     -0.40056371
H      -2.96445101     -1.13482007      1.33627915
H      -2.23834169     -2.50349585      0.48224546
H      -3.15935665     -1.30120567     -0.43214398
