29
CC1(C)C2CCC1(C)C(O)C2
C       1.92405693     -0.41398117     -1.05045158
C       0.86831376     -0.36145629      0.07254387
C       1.16961463     -1.55743319      0.99777674
C       0.79327986      1.00432515      0.80620249
C       0.34905439      1.98509640     -0.30203004
C      -0.61259833      1.13355871     -1.14815398
C      -0.61081357     -0.23101566     -0.40246669
C      -1.16086677     -1.36101456     -1.25281020
C      -1.37658808     -0.04025372      0.94169299
O      -2.63516997      0.59278901      0.78815213
C      -0.41724812      0.84592355      1.75780224
H       2.93145217     -0.31314815     -0.62997394
H       1.87912304     -1.37332237     -1.57849399
H       1.82169753      0.36497152     -1.80866737
H       2.18216349     -1.47342255      1.40960022
H       1.11453633     -2.49979441      0.44098642
H       0.49453039     -1.65672891      1.84999865
H       1.70594983      1.31751599      1.31864500
H      -0.14446184      2.87630268      0.09975966
H       1.19966719      2.32474951     -0.90220010
H      -0.24374016      1.04047996     -2.17572170
H      -1.60564124      1.58974540     -1.21152711
H      -0.57327502     -1.49418338     -2.16692756
H      -2.19505140     -1.16052566     -1.55191215
H      -1.15004867     -2.31028440     -0.70757415
H      -1.55072341     -0.99154190      1.45597822
H      -3.18496520      0.01908234      0.22832997
H      -0.11445187      0.33621821      2.67890792
H      -0.85779587      1.80734791      2.04253402
