14
O=[N+]([O-])c1ccc(Cl)c(Cl)c1
O      -3.10998625      0.59685966     -0.40482713
N      -2.39003570     -0.31370097      0.02696569
O      -2.80644691     -1.38897536      0.47839000
C      -0.93669505     -0.10273601      0.00172360
C      -0.41832969      1.09848141     -0.50010000
C       0.96519655      1.29470190     -0.52211397
C       1.82708684      0.29960616     -0.04678667
Cl      3.52411378      0.61418892     -0.10612616
C       1.30155685     -0.89970052      0.45386976
Cl      2.30922893     -2.16791658      1.05546438
C      -0.08199978     -1.10468064      0.47971609
H      -1.07138547      1.88541938     -0.87467524
H       1.36715255      2.22818777     -0.91212959
H      -0.47945665     -2.03973512      0.87062925
