12
COCC(=O)O
C      -1.47053989     -1.02869192     -0.23779797
O      -0.11978610     -0.69365057      0.06561410
C       0.11789695      0.70974891     -0.13156552
C       1.57075969      1.00567194      0.20678700
O       2.08733353      2.11041883      0.14080435
O       2.24157457     -0.10826513      0.59608286
H      -2.15578751     -0.48601823      0.42038501
H      -1.60312444     -2.10136360     -0.07379094
H      -1.69385300     -0.80387632     -1.28510560
H      -0.05615356      0.96815153     -1.18032455
H      -0.52225506      1.28887979      0.54057545
H       1.60393483     -0.86100523      0.56366827
