31
CNC(=O)N(C)c1nnc(C(C)(C)C)s1
C      -4.63382637      1.60033612      0.36286598
N      -3.43193545      0.84154537      0.13216231
C      -3.43766269     -0.52842721      0.12159966
O      -4.50394754     -1.14266160      0.20311700
N      -2.21026319     -1.18221542     -0.02141524
C      -2.25841379     -2.63624158     -0.14514937
C      -1.00690690     -0.47085022     -0.00231519
N      -0.84407510      0.82363849      0.17691659
N       0.47560804      1.21113554      0.15047827
C       1.29683159      0.19919468     -0.04638415
C       2.81233781      0.31704087     -0.12489339
C       3.32357099     -0.15698380     -1.49775584
C       3.23307931      1.79159313      0.05651528
C       3.47962403     -0.50780769      0.99096138
S       0.47762804     -1.30981107     -0.20889933
H      -4.44551868      2.64131229      0.09045227
H      -5.45540514      1.20105972     -0.23795123
H      -4.89269992      1.53535300      1.42303201
H      -2.54570389      1.30724885      0.30140890
H      -1.73804586     -3.08817233      0.70546318
H      -1.78327344     -2.93752030     -1.08425756
H      -3.27946443     -3.02713563     -0.15655507
H       3.12754224     -1.22253698     -1.66180007
H       4.40607834     -0.00986311     -1.58806500
H       2.84217555      0.39561738     -2.31328745
H       4.32226218      1.90335782      0.00372565
H       2.90747248      2.18400756      1.02733823
H       2.79740259      2.43047074     -0.72099905
H       3.11153209     -0.20939881      1.97972931
H       3.28655708     -1.58052745      0.87808376
H       4.56744003     -0.37275838      0.98484063
