42
C=CCOc1ccccc1OCC(O)CNC(C)C
C      -5.01953503      0.08576583     -2.94722234
C      -3.80012311     -0.17878554     -2.45840690
C      -3.52558202     -0.73640832     -1.09361914
O      -2.64286355      0.18274930     -0.43449466
C      -2.57653840     -0.09891507      0.90634898
C      -3.24312232      0.75002556      1.78766198
C      -3.17169120      0.51328302      3.16090704
C      -2.42551410     -0.56207637      3.64866218
C      -1.73284565     -1.39417477      2.76610064
C      -1.78570058     -1.14338374      1.39581554
O      -1.11428909     -1.93777622      0.50648690
C       0.31495616     -1.79628644      0.59302864
C       0.80448821     -0.46007816      0.01013339
O       0.32446378     -0.31812489     -1.33844726
C       2.34467498     -0.40578278      0.00087292
N       2.79943712      0.88802087     -0.53412052
C       4.22909584      0.90441081     -0.86362142
C       5.10026321      0.89150728      0.39357610
C       4.52297287      2.16506777     -1.68100958
H      -5.13696022      0.49182534     -3.94778657
H      -5.92046399     -0.08957228     -2.36533966
H      -2.92780913      0.01624160     -3.07956192
H      -4.45805608     -0.86341988     -0.52737703
H      -3.03799757     -1.71226474     -1.20803495
H      -3.81589457      1.59012820      1.40606445
H      -3.69732655      1.16802578      3.85190255
H      -2.37923012     -0.74825222      4.71951075
H      -1.15852913     -2.23129833      3.15300586
H       0.72236591     -2.61945783     -0.00579677
H       0.66980363     -1.94309658      1.61999291
H       0.40663020      0.38303279      0.58652275
H      -0.64799017     -0.25156220     -1.25417766
H       2.72253726     -1.21690654     -0.63335043
H       2.72120179     -0.54786235      1.01911482
H       2.24812425      1.06075945     -1.38245800
H       4.48140274      0.03833332     -1.48788071
H       6.16095241      0.96973528      0.12877470
H       4.85908826      1.73121651      1.05430159
H       4.97709589     -0.03613947      0.96192375
H       3.93622977      2.18210809     -2.60624410
H       5.58138469      2.20440186     -1.96128928
H       4.29089361      3.07498605     -1.11520317
