25
CCCOC(=O)c1ccc(O)c(Cl)c1
C      -4.66662915      0.33097712     -0.10624159
C      -3.19048926      0.68083024     -0.15923235
C      -2.31085648     -0.52100223      0.16211366
O      -0.94168598     -0.09972411      0.08875456
C      -0.04305669     -1.07919206      0.35489588
O      -0.30827554     -2.23621726      0.63821506
C       1.34636686     -0.55494598      0.25624571
C       2.40617083     -1.44228079      0.50311043
C       3.72957065     -1.00309153      0.42419760
C       3.99347197      0.32215600      0.09874732
O       5.30441020      0.70430421      0.03381720
C       2.94633289      1.21288245     -0.14866941
Cl      3.27885362      2.85629053     -0.55212964
C       1.62244574      0.78040343     -0.07144777
H      -4.91022615     -0.45262486     -0.83075525
H      -4.95052146     -0.02191438      0.89033504
H      -5.27380113      1.21088170     -0.34065618
H      -2.93484483      1.06813684     -1.15284155
H      -2.97459947      1.49307280      0.54523449
H      -2.52694214     -0.88749844      1.17254858
H      -2.48624855     -1.32236423     -0.56524313
H       2.20419704     -2.48172384      0.75849128
H       4.54833600     -1.69182166      0.61571839
H       5.32081317      1.65075527     -0.20263330
H       0.81720787      1.48371075     -0.26630142
