15
O=C([O-])c1ccccc1.[Na+]
O       2.98786529     -1.08548451     -0.23688815
C       2.39745170      0.03218700     -0.09363640
O       2.96706597      1.16543241      0.00430864
C       0.88145890      0.01183394     -0.03442661
C       0.14886057      1.20019118      0.12212928
C      -1.24718038      1.18275695      0.17679446
C      -1.93370578     -0.02596091      0.07552437
C      -1.22501540     -1.21594730     -0.08023861
C       0.17100139     -1.19589695     -0.13462216
Na      0.00000000      0.00000000      0.00000000
H       0.68580521      2.14429595      0.20120011
H      -1.79022334      2.11458126      0.29828286
H      -3.01793764     -0.04051716      0.11787033
H      -1.75070478     -2.16211992     -0.15998682
H       0.72525829     -2.12535195     -0.25631129
