28
O=c1cccc2n1CC1CNCC2C1
O       2.04904968     -2.79350426     -0.00353025
C       1.98749330     -1.57697876      0.15909389
C       3.17062475     -0.86190798      0.70139204
C       3.14407403      0.46683819      0.84517585
C       1.96737732      1.21559006      0.49406826
C       0.86846341      0.59749123      0.02648487
N       0.86789631     -0.79144109     -0.14039210
C      -0.25193219     -1.49106221     -0.77618814
C      -1.52379121     -0.66952960     -1.02439212
C      -2.42683805     -0.58893542      0.22154754
N      -1.83774047      0.14450030      1.34557850
C      -1.33229480      1.45691616      0.91452760
C      -0.38790466      1.38428939     -0.30850960
C      -1.12871834      0.73280491     -1.47460992
H       4.03244229     -1.46546062      0.95278519
H       4.00313355      1.00316495      1.23404165
H       1.99544350      2.29148007      0.63915011
H       0.12723086     -1.84604075     -1.74445820
H      -0.48331885     -2.39014100     -0.19112521
H      -2.10037487     -1.15977264     -1.81875559
H      -2.68406098     -1.59942912      0.55980549
H      -3.37567031     -0.10902558     -0.04988070
H      -1.04506554     -0.39533906      1.70240037
H      -0.81670377      1.92504209      1.76166217
H      -2.18607179      2.10544641      0.68063232
H      -0.11752338      2.40758852     -0.59958625
H      -2.01962957      1.31627181     -1.73720311
H      -0.49559020      0.69114399     -2.36971468
