18
O=C(O)c1c(Cl)c(Cl)c(Cl)c(Cl)c1C(=O)O
O       2.12735253      1.14753975      1.43231878
C       1.90836141      0.40535437      0.49821870
O       2.79322358      0.13140578     -0.47001912
C       0.63367107     -0.25962954      0.21472956
C       0.49078537     -1.64131902      0.38454606
Cl      1.82773747     -2.58610900      0.96928935
C      -0.74966901     -2.24442553      0.10488269
Cl     -0.94297299     -3.96380298      0.30799254
C      -1.83517617     -1.45857870     -0.33930052
Cl     -3.36578774     -2.20884895     -0.69874917
C      -1.68382790     -0.06781448     -0.49274286
Cl     -2.99693240      0.91113916     -1.07532354
C      -0.44990744      0.52288384     -0.19806460
C      -0.25226871      1.96713277     -0.34802825
O       0.42201864      2.50464231     -1.20111620
O      -0.87273560      2.61985494      0.64418564
H       3.59336228      0.65431231     -0.24673355
H      -0.64723437      3.56626298      0.51391448
