23
O=[N+]([O-])c1ccccc1NCCO
O      -1.57689537      1.22157026      3.12008444
N      -0.88042062      1.25609872      2.09477500
O       0.18339548      1.88835389      1.98685989
C      -1.35978102      0.52049261      0.92220809
C      -2.75445391      0.41053609      0.76294886
C      -3.27190305     -0.27674987     -0.32930655
C      -2.40270669     -0.85883085     -1.24498087
C      -1.01498315     -0.74812041     -1.07921586
C      -0.44787246     -0.02908527     -0.01255900
N       0.94638255     -0.00384843      0.19443990
C       1.85144165     -0.14987313     -0.95657031
C       3.30087606     -0.01730805     -0.47117921
O       3.58234999     -1.02121090      0.50312517
H      -3.43895339      0.85227695      1.48472627
H      -4.34742819     -0.37084713     -0.45915352
H      -2.80048911     -1.41757541     -2.08982203
H      -0.38991209     -1.25532466     -1.80893176
H       1.20375638      0.81197025      0.76705127
H       1.73366254     -1.14522901     -1.39797243
H       1.64192281      0.61529597     -1.71182185
H       3.47410032      0.96049435     -0.01024106
H       3.99985917     -0.14001464     -1.30346173
H       2.76805209     -1.10307133      1.03899728
