21
CN(C)C(=N)N(C)C
C       2.48705417      0.36002144     -0.61120683
N       1.15617478      0.43353125     -0.00699632
C       1.18159378      0.80431546      1.40694981
C       0.19857004     -0.45053628     -0.45828983
N       0.48903036     -1.38316345     -1.30648558
N      -1.06871772     -0.25298164      0.04127377
C      -1.98683597     -1.37588982      0.19518714
C      -1.73978622      1.00184998     -0.30632630
H       3.01411649     -0.54235905     -0.28295327
H       2.42180848      0.35790634     -1.70487852
H       3.08922833      1.23181078     -0.33288336
H       1.89285995      1.61863552      1.58370511
H       0.20841588      1.15832584      1.76019065
H       1.48199646     -0.05282120      2.01922297
H      -0.35956942     -1.89479847     -1.53754984
H      -1.46470028     -2.25223299      0.59424399
H      -2.44604685     -1.64306049     -0.76250544
H      -2.78469435     -1.12468977      0.90226455
H      -2.57548277      1.19177937      0.37566785
H      -1.06529376      1.86163548     -0.23983607
H      -2.12972137      0.95272170     -1.32879450
