19
[Cl-].[NH3+]c1cc([N+](=O)[O-])cc(Cl)c1O
Cl      0.00000000      0.00000000      0.00000000
N      -1.44838662     -1.15257273     -1.60310945
C      -0.61816929     -0.43537621     -0.65922348
C       0.49330361     -1.03623341     -0.08526226
C       1.26087349     -0.28697462      0.82547136
N       2.44237267     -0.90458897      1.44490677
O       3.09520804     -0.22149964      2.23977577
O       2.69605965     -2.07141762      1.12095285
C       0.91776453      1.03616337      1.15093139
C      -0.20461667      1.61436259      0.55872475
Cl     -0.64041072      3.23187923      0.94425493
C      -0.97141201      0.87953367     -0.34505468
O      -2.08661253      1.38854416     -0.96240817
H      -1.87929404     -1.97808256     -1.17268416
H      -0.92061544     -1.41725550     -2.44204658
H      -2.20833038     -0.51320919     -1.89456983
H       0.76688748     -2.06037041     -0.33112217
H       1.51466715      1.61442833      1.85722472
H      -2.20928893      2.31266952     -0.64676177
