20
CC1NC(=O)C(C)NC1=O
C      -2.82678688      0.19981983      0.29976360
C      -1.41325522     -0.03963033     -0.20674000
N      -0.64448459      1.20121477     -0.21850905
C       0.70345483      1.16954932     -0.51129255
O       1.26486134      2.16032719     -0.96670149
C       1.36742828     -0.21730553     -0.35287369
C       2.84831270     -0.07912934     -0.03689470
N       0.68218127     -0.98985477      0.67884698
C      -0.69224982     -1.10672653      0.64811758
O      -1.24753848     -2.06321692      1.17820608
H      -2.81926026      0.55841491      1.33529978
H      -3.41818310     -0.72129893      0.27045678
H      -3.33836450      0.95225933     -0.30985172
H      -1.44521161     -0.41423643     -1.23708614
H      -1.09450380      2.06433371     -0.49836414
H       1.23729368     -0.75150151     -1.30190712
H       3.00231679      0.46794804      0.90010669
H       3.31871693     -1.06238905      0.07000848
H       3.37236635      0.46437501     -0.83001427
H       1.14290610     -1.79295276      1.08942893
