13
CC(O)CO
C      -1.40677388     -0.48392502     -0.17910156
C      -0.10427012      0.29322690     -0.26531056
O      -0.11696744      1.35828773      0.69347938
C       1.10730075     -0.59295098      0.03192772
O       2.29470863      0.19617039     -0.03981295
H      -1.42569928     -1.30860281     -0.89786833
H      -1.55511316     -0.89010404      0.82746594
H      -2.25914995      0.17364484     -0.38072945
H       0.00742102      0.75264171     -1.25366100
H      -0.87799756      1.92707886      0.48108506
H       1.19142026     -1.41152134     -0.68873049
H       1.05424431     -1.01152162      1.04236887
H       2.09087641      0.99757539      0.48271138
