16
O=Cc1cccc([N+](=O)[O-])c1
O      -3.51853911     -0.66960804      0.15276803
C      -2.40243224     -1.16545169      0.06824495
C      -1.18021604     -0.33597129      0.04557168
C      -1.27848854      1.05832314      0.12178783
C      -0.12455768      1.84401515      0.10051186
C       1.12991816      1.23944041      0.00310325
C       1.22065262     -0.15823477     -0.07288438
N       2.53980111     -0.79535962     -0.17538444
O       2.57432527     -2.03230401     -0.24019194
O       3.53664377     -0.06054409     -0.19091932
C       0.06755243     -0.95612105     -0.05227279
H      -2.26178186     -2.25766671      0.00516034
H      -2.25505850      1.53527363      0.19793824
H      -0.20543841      2.92771430      0.15998999
H       2.01987347      1.86650662     -0.01223149
H       0.13774556     -2.04001198     -0.11119183
