34
CCOC(=O)N[C@@H](C=O)[C@@H](O)[C@H](O)[C@H](O)CO
C       5.19998608     -0.67781392      0.57152234
C       4.16185761     -1.54137893     -0.12010069
O       3.25887233     -0.72088201     -0.87597536
C       2.20129958     -0.22704038     -0.19681575
O       1.94282554     -0.41743280      0.98285085
N       1.42976371      0.51292947     -1.02877653
C       0.23969745      1.25623758     -0.60730668
C      -0.14538278      2.14296170     -1.78243805
O       0.12269060      1.86743198     -2.95139852
C      -0.91189282      0.31688486     -0.16930184
O      -0.71122507     -0.10224269      1.20008517
C      -2.31410734      0.96585828     -0.25640853
O      -2.25020495      2.26380196      0.36218773
C      -3.44164133      0.16842369      0.43271860
O      -3.23057567      0.15532683      1.85996253
C      -3.57858251     -1.27284879     -0.05919366
O      -4.71078216     -1.87979128      0.56291731
H       5.92806080     -1.29722804      1.10281955
H       4.73027608      0.00244914      1.28897993
H       5.72995600     -0.05580092     -0.15727863
H       4.65530282     -2.21259019     -0.83062480
H       3.62229226     -2.17125876      0.59658738
H       1.73277415      0.58424084     -1.99620263
H       0.55164589      1.90123130      0.22257390
H      -0.71139254      3.05659913     -1.53254931
H      -0.90404828     -0.59367122     -0.78014087
H       0.24217842     -0.33191717      1.30366658
H      -2.57889353      1.12049109     -1.30835996
H      -2.46312149      2.11445647      1.30911266
H      -4.39255536      0.69625305      0.29506788
H      -2.29754495     -0.13310197      1.99320834
H      -2.70775578     -1.87751077      0.21045968
H      -3.72087672     -1.31255826     -1.14282362
H      -4.67889605     -1.60459735      1.50097501
