50
O=C1c2ccccc2C(=O)c2c1ccc1c2[nH]c2ccc3c4ccccc4c(=O)c4ccc1c2c43
O       5.48304055      1.23124830      2.84922089
C       4.96704405      0.76676805      1.83927525
C       5.80785692      0.23528748      0.75241198
C       7.20323836      0.26229866      0.87678193
C       8.00592588     -0.23938407     -0.14870538
C       7.41912563     -0.76776190     -1.29760296
C       6.02890096     -0.79507164     -1.42234161
C       5.22036707     -0.29187405     -0.39392802
C       3.75088655     -0.32519908     -0.53524320
O       3.25457650     -0.79503979     -1.55564986
C       2.89563345      0.20885278      0.55638527
C       3.49735986      0.73352394      1.69813154
C       2.70879057      1.23986646      2.73419029
C       1.31484354      1.22451432      2.63464555
C       0.66836586      0.70441450      1.50045108
C       1.48424697      0.19227895      0.45341780
N       0.84039912     -0.33067174     -0.68668482
C      -0.54747085     -0.37917133     -0.85625296
C      -1.08538556     -0.91656408     -2.02190498
C      -2.46621951     -0.97056514     -2.20278613
C      -3.35535787     -0.48980583     -1.22582786
C      -4.83181145     -0.53827022     -1.39955467
C      -5.46364918     -1.06384105     -2.54464533
C      -6.85883311     -1.09225563     -2.67194374
C      -7.66557294     -0.59521808     -1.65649356
C      -7.07593453     -0.06946533     -0.51304398
C      -5.67687959     -0.04281951     -0.38930700
C      -5.09210505      0.52572317      0.84465628
O      -5.81406606      0.96210264      1.73553237
C      -3.62014100      0.55953068      0.98709630
C      -3.07745391      1.09832213      2.15593760
C      -1.69662279      1.14901156      2.32981035
C      -0.82146503      0.66447244      1.34414254
C      -1.39027419      0.11686770      0.15534751
C      -2.80226843      0.05854328     -0.03619870
H       7.66849019      0.67348024      1.77125434
H       9.08915554     -0.21762238     -0.05048342
H       8.04404639     -1.15907645     -2.09753587
H       5.58062384     -1.20984292     -2.32362250
H       3.17373521      1.65145847      3.62951964
H       0.75553273      1.63191162      3.47185889
H       1.44824960     -0.69184293     -1.42356650
H      -0.43059767     -1.29885051     -2.80126535
H      -2.81944353     -1.40177376     -3.13434939
H      -4.89141327     -1.46801256     -3.37439600
H      -7.31168480     -1.50561704     -3.57043898
H      -8.74788947     -0.61621510     -1.75302634
H      -7.70460991      0.32104567      0.28502234
H      -3.73039281      1.48193269      2.93820875
H      -1.33289285      1.57837640      3.25796103
