30
C=C(C)C(=O)OCCCCCC
C       5.06833049     -0.06238010      0.19038886
C       3.75193015      0.20754839      0.17663844
C       3.07183248      0.97562646      1.26675607
C       2.94956867     -0.28786506     -0.97852781
O       3.40372994     -0.93445971     -1.91057395
O       1.65319212      0.08536063     -0.83509100
C       0.79265634     -0.35357379     -1.89316442
C      -0.63174187      0.11046905     -1.60015563
C      -1.19468341     -0.52040482     -0.32304427
C      -2.63356806     -0.06753819     -0.06819493
C      -3.19671143     -0.69643154      1.20602629
C      -4.62679429     -0.24893887      1.46309253
H       5.54437333     -0.62290823     -0.61068443
H       5.70712559      0.26905389      1.00238919
H       2.61785035      1.88969434      0.87003144
H       2.29038834      0.36941432      1.73684748
H       3.77367264      1.27293222      2.05352993
H       0.82528972     -1.44674188     -1.97111161
H       1.12896263      0.08777017     -2.83856165
H      -1.27318151     -0.14348786     -2.45190032
H      -0.64053255      1.20168430     -1.48970131
H      -0.56996855     -0.24697102      0.53570355
H      -1.16384716     -1.61327682     -0.41031849
H      -3.26276917     -0.34360569     -0.92314270
H      -2.66508899      1.02556417      0.01664639
H      -3.17102981     -1.78933732      1.12480035
H      -2.57370728     -0.42006774      2.06463401
H      -5.28322646     -0.53896112      0.63646209
H      -5.00954454     -0.71041077      2.37876511
H      -4.68250770      0.83790092      1.58146081
