68
CC(C)CCCCCOC(=O)CCCCC(=O)OCCCCCC(C)C
C      -8.82447634     -0.38549921     -2.48273198
C      -8.10260634      0.13882194     -1.23886366
C      -9.12274875      0.73325877     -0.26440797
C      -7.26813089     -0.99156492     -0.60686295
C      -6.38202889     -0.51849899      0.55062344
C      -5.52436840     -1.63282228      1.16090924
C      -4.52891818     -2.31084349      0.21179554
C      -3.55788285     -1.35645178     -0.47943077
O      -2.84793076     -0.60265993      0.51084986
C      -1.98835643      0.32276783     -0.00307418
O      -1.79720334      0.51950569     -1.19499395
C      -1.30146113      1.05192766      1.12897473
C      -0.45156065      2.21531554      0.61956011
C       0.17854691      3.05115119      1.73942798
C       1.16239513      2.29773239      2.62903411
C       2.36301613      1.82146823      1.85211806
O       3.26090053      2.55490967      1.46119248
O       2.27510888      0.48057953      1.62672395
C       3.32808174     -0.08837293      0.83114038
C       4.51136571     -0.46034483      1.72226430
C       5.62014948     -1.21111347      0.98208279
C       6.32240671     -0.36258216     -0.08275188
C       7.47908198     -1.13111052     -0.72937412
C       8.13483160     -0.37800797     -1.90193601
C       9.16504721     -1.27791860     -2.58715846
C       8.80148180      0.92551293     -1.45905810
H      -8.10885887     -0.77556854     -3.21590957
H      -9.52393803     -1.19093321     -2.22979162
H      -9.39169729      0.41590694     -2.96626706
H      -7.42405960      0.94034417     -1.55870600
H      -8.63258072      1.23225412      0.57628881
H      -9.78772778     -0.03992183      0.13693602
H      -9.74280409      1.48287541     -0.76493088
H      -7.93264852     -1.79135018     -0.25571300
H      -6.63540390     -1.42797743     -1.38898750
H      -7.01103963     -0.11651641      1.35382693
H      -5.74240520      0.30614764      0.21608493
H      -6.18516871     -2.40446700      1.57544587
H      -4.97386079     -1.21488421      2.01387925
H      -5.06638327     -2.89624323     -0.54316528
H      -3.94872783     -3.02728047      0.80793255
H      -4.09779720     -0.67924612     -1.15086809
H      -2.83987628     -1.93874632     -1.06910411
H      -0.67920174      0.32510247      1.66117971
H      -2.07213727      1.43280428      1.80909491
H      -1.08074539      2.87750723      0.01102796
H       0.32779187      1.83964741     -0.05408432
H      -0.61831088      3.46605371      2.36867579
H       0.69190120      3.90578130      1.28091116
H       0.68306311      1.45568682      3.13963152
H       1.53060437      2.95666468      3.42385947
H       3.60976287      0.59623351      0.02226748
H       2.91694938     -0.98915478      0.36034550
H       4.14634382     -1.08661549      2.54711410
H       4.92053865      0.43989487      2.19861206
H       6.36019646     -1.54305854      1.72139990
H       5.20527207     -2.11550972      0.51978003
H       5.60929685     -0.07169273     -0.86012273
H       6.69515782      0.55622283      0.38175975
H       8.23367198     -1.36165000      0.03290114
H       7.09854939     -2.09319429     -1.09630840
H       7.35979658     -0.13577014     -2.63972312
H       8.69826382     -2.20260414     -2.94411865
H       9.60670451     -0.77397969     -3.45237719
H       9.97557366     -1.54908586     -1.90321319
H       9.31929998      1.40141395     -2.29953222
H       8.06448316      1.64308171     -1.08477765
H       9.53741058      0.74666699     -0.66742738
