47
CCCOC1=CC(=O)CC(C)C12Oc1c(Cl)c(OC)cc(OC)c1C2=O
C      -3.06122084      2.74334983      1.31163087
C      -3.23669510      1.48946305      2.15725049
C      -3.38156615      0.22995487      1.30664569
O      -2.18339560      0.04742216      0.55272133
C      -2.09544872     -1.02119136     -0.32282006
C      -3.03818454     -1.96868700     -0.47439994
C      -2.85043325     -3.10739159     -1.40542531
O      -3.75038059     -3.93620710     -1.52104402
C      -1.53849725     -3.24143646     -2.14093179
C      -0.91976191     -1.87169062     -2.42124181
C       0.40219445     -2.02478870     -3.18104058
C      -0.80018739     -1.02876280     -1.13244846
O      -0.46462468      0.33350842     -1.52124319
C       0.67155462      0.67342632     -0.82442163
C       1.27950718      1.91702504     -0.87984800
Cl      0.59971415      3.15916597     -1.87005677
C       2.44542462      2.13720966     -0.12149297
O       3.00503891      3.38686259     -0.21654937
C       4.16241885      3.66681909      0.55905697
C       2.97047608      1.09332987      0.67221832
C       2.34940815     -0.16219603      0.72288000
O       2.77585919     -1.22989300      1.45232872
C       3.93414775     -1.06823367      2.25966179
C       1.20332654     -0.33008932     -0.03774491
C       0.33022409     -1.47174814     -0.21073872
O       0.48329753     -2.57266793      0.28831394
H      -2.99286057      3.62573538      1.95571135
H      -3.91091860      2.88139080      0.63549928
H      -2.14758593      2.69490309      0.71067816
H      -2.36384326      1.38987376      2.81309539
H      -4.12140402      1.60200268      2.79344412
H      -4.24026367      0.33498856      0.63300326
H      -3.53587199     -0.62958116      1.96911198
H      -3.97007221     -1.99028234      0.07516107
H      -0.87441913     -3.87985849     -1.54920025
H      -1.73687553     -3.75113138     -3.09134417
H      -1.59658782     -1.33085205     -3.10049431
H       1.13982497     -2.59032573     -2.60270646
H       0.24126276     -2.55988253     -4.12338935
H       0.83362241     -1.04965809     -3.42797449
H       5.00099751      3.03043864      0.25833747
H       4.44881366      4.70572997      0.36933202
H       3.95356877      3.56939713      1.62941896
H       3.87004936      1.26374837      1.25114058
H       4.81390106     -0.84879292      1.64590756
H       3.78004574     -0.29570523      3.02017114
H       4.11642038     -2.01469162      2.77760928
