29
CC(C)=CCC1(C)C(=O)NC(=O)NC1=O
C       2.26126218      1.31247224      0.79371741
C       2.22399424     -0.18081191      0.62010087
C       3.55507591     -0.78633770      0.25106971
C       1.13489417     -0.96242729      0.75626018
C      -0.26491243     -0.54501598      1.12840458
C      -1.29462124     -0.59701111     -0.03035602
C      -1.43049901     -2.01539337     -0.60202511
C      -2.62737408     -0.15143598      0.55218471
O      -3.50818183     -0.92079997      0.92625401
N      -2.78508381      1.20260126      0.68879670
C      -2.19809357      2.11220559     -0.13729184
O      -2.68731225      3.22290143     -0.31451561
N      -1.10423176      1.69933638     -0.83265823
C      -0.89075667      0.37934634     -1.12502824
O      -0.41023118      0.05251505     -2.20648610
H       1.28780097      1.75101185      1.02051873
H       2.94080386      1.57881602      1.61000433
H       2.62258765      1.78780660     -0.12448326
H       4.29528671     -0.57656252      1.03017526
H       3.91406039     -0.36499695     -0.69367996
H       3.49963404     -1.87328775      0.12984703
H       1.25476242     -2.03565883      0.59939430
H      -0.25756458      0.44691720      1.59345874
H      -0.59855596     -1.21629394      1.93275078
H      -2.23692842     -2.06070243     -1.34401963
H      -0.51524648     -2.34794643     -1.10353297
H      -1.66745546     -2.74231592      0.18318550
H      -3.67959167      1.49399927      1.06129253
H      -0.83352211      2.33706885     -1.57029655
