31
CC(C)[C@H]1CC[C@@H](C)CC1O
C       3.02612277      0.30778994      0.95379762
C       2.08695759      0.04777202     -0.23008421
C       2.05968405      1.27981085     -1.13891935
C       0.67966397     -0.42868761      0.24280756
C      -0.07466911      0.61534882      1.08675734
C      -1.42862057      0.09107033      1.56904832
C      -2.31963363     -0.42051336      0.43104391
C      -2.88267533      0.72805287     -0.40997451
C      -1.55977746     -1.43485711     -0.42930817
C      -0.20736377     -0.91371315     -0.92527769
O       0.45688169     -1.96921940     -1.61771186
H       3.05089038     -0.55260608      1.63049130
H       4.04872702      0.47955193      0.59988382
H       2.72576166      1.18976980      1.52794805
H       2.53893731     -0.76973342     -0.80711359
H       3.07347160      1.53015477     -1.47139493
H       1.65899742      2.15790063     -0.62344491
H       1.46188648      1.10506393     -2.03762659
H       0.86207896     -1.30313240      0.88587996
H      -0.22870986      1.53448184      0.51130667
H       0.51526094      0.89083198      1.96756375
H      -1.94656004      0.87745523      2.13098093
H      -1.25340854     -0.73027142      2.27615759
H      -3.17830307     -0.93579573      0.88098828
H      -3.46298962      1.41392870      0.21647325
H      -3.55161553      0.34287208     -1.18700963
H      -2.09840030      1.30951869     -0.90310536
H      -1.39498511     -2.35121943      0.15406422
H      -2.17265145     -1.74701846     -1.28450408
H      -0.37047401     -0.10388775     -1.64350222
H      -0.11448443     -2.24071906     -2.35621549
