46
COc1ccc(-c2cnc3[nH]cc(C(=O)NC(C)CO)c3n2)cc1OC
C      -6.34800887     -0.60585427      0.04720239
O      -5.22828032      0.17518834     -0.34319342
C      -3.99621776     -0.42868127     -0.34280402
C      -3.76371555     -1.75100854      0.04082469
C      -2.46909104     -2.28344875      0.00868799
C      -1.37327088     -1.51359932     -0.41209092
C      -0.00235438     -2.06224906     -0.45939059
C       0.27397555     -3.39064121     -0.81070571
N       1.51425108     -3.94746956     -0.87136785
C       2.45834861     -3.03992093     -0.55800168
N       3.80616455     -3.25981258     -0.52908918
C       4.45209316     -2.10034104     -0.17625476
C       3.50239079     -1.10728141      0.03103897
C       3.79040858      0.26795503      0.41184145
O       4.93344720      0.68440564      0.56440948
N       2.67137282      1.05302017      0.58277091
C       2.73534274      2.42337459      1.08056565
C       2.89892735      2.44676445      2.59643968
C       1.46848386      3.18091638      0.65356243
O       1.31835635      3.15150134     -0.76705694
C       2.23953522     -1.71263546     -0.21171032
N       0.98692224     -1.18130126     -0.14890878
C      -1.62268663     -0.17731038     -0.78536979
C      -2.91316341      0.36963807     -0.75328087
O      -3.21651706      1.65845808     -1.11818336
C      -2.13368017      2.55049503     -1.34883404
H      -7.23854948      0.02584680     -0.02600965
H      -6.48944566     -1.45852706     -0.62504950
H      -6.25745605     -0.93256793      1.08830827
H      -4.56834572     -2.39667328      0.37719586
H      -2.33407463     -3.31201955      0.33823643
H      -0.52570575     -4.07458089     -1.08104052
H       4.23940453     -4.14684639     -0.74418595
H       5.53217624     -2.06678960     -0.10154786
H       1.77145048      0.57390395      0.58327170
H       3.60863071      2.89610705      0.61479517
H       3.81532118      1.93079348      2.90197534
H       2.05969573      1.94660014      3.09252255
H       2.95199375      3.47560496      2.96703299
H       0.57306248      2.72444310      1.08903818
H       1.50979898      4.22805307      0.96868034
H       1.75798657      2.33687008     -1.07658786
H      -0.78173813      0.42538596     -1.11798571
H      -2.55338459      3.54232998     -1.54221833
H      -1.56098453      2.25445200     -2.23349072
H      -1.49287013      2.62745205     -0.46532072
