26
c1cncc([C@@H]2CCCCN2)c1
C       3.32736548      1.00022671      0.23670028
C       4.04516837     -0.17340485      0.08319195
N       3.47548192     -1.39001478     -0.04901060
C       2.12315943     -1.43185645     -0.02386165
C       1.30279387     -0.31691774      0.13249464
C      -0.20329661     -0.46274490      0.12678351
C      -0.77671898     -0.04828648     -1.23956962
C      -2.29891214     -0.16122962     -1.25806454
C      -2.90652705      0.59207738     -0.07993000
C      -2.27034864      0.16109042      1.23912886
N      -0.81722831      0.32210020      1.21051806
C       1.93790666      0.92415209      0.25836200
H       3.83578342      1.95225585      0.33642581
H       5.13097901     -0.16570693      0.06035539
H       1.70519069     -2.42857582     -0.13932545
H      -0.44420680     -1.52045339      0.30339395
H      -0.35725616     -0.67768440     -2.03439081
H      -0.49252616      0.98548950     -1.47855972
H      -2.69341464      0.23381455     -2.20065857
H      -2.58768927     -1.21814759     -1.20542049
H      -3.98744543      0.41543990     -0.04570641
H      -2.76271372      1.67059443     -0.22297217
H      -2.53050397     -0.88050905      1.46383430
H      -2.67784374      0.77406846      2.05043137
H      -0.42571079      0.01322718      2.10046440
H       1.34851354      1.83099533      0.37538555
