28
CC1CCCC2CCCC12
C      -2.04523603     -1.81149368     -0.25242574
C      -1.37859453     -0.46074743     -0.51403893
C      -1.80885805      0.56872119      0.53987258
C      -1.13120787      1.91743551      0.31629854
C       0.38650549      1.78196035      0.31742604
C       0.86398679      0.77207097     -0.73419249
C       2.32916115      0.38774527     -0.52898396
C       2.31198315     -0.76948245      0.47035284
C       0.86966039     -1.27825400      0.52396199
C       0.14958360     -0.58265560     -0.63679347
H      -1.77995773     -2.21104172      0.73175635
H      -1.74911642     -2.54442766     -1.01017515
H      -3.13574241     -1.71573435     -0.28929508
H      -1.74839118     -0.10102002     -1.48480114
H      -2.89657453      0.70442364      0.50131314
H      -1.57543339      0.20530264      1.54800593
H      -1.46292882      2.34345377     -0.63844158
H      -1.43813593      2.61691933      1.10209283
H       0.84175022      2.75947946      0.11796480
H       0.71772190      1.48748198      1.32104943
H       0.71912843      1.20853331     -1.72999459
H       2.75204026      0.03557958     -1.47812639
H       2.94906875      1.22128133     -0.18396545
H       3.00210534     -1.55985125      0.15628625
H       2.63091657     -0.43371529      1.46329577
H       0.82908439     -2.36851558      0.42996043
H       0.42684587     -1.01879511      1.49177264
H       0.37063457     -1.15465420     -1.55017561
