34
CCOP(=S)(OCC)SCCS(=O)CC
C      -1.78831387     -3.31982399     -0.65087454
C      -2.12467075     -1.84465979     -0.73062130
O      -1.16491199     -1.12518474      0.02775470
P      -1.09236884      0.49508122     -0.11296763
S      -0.41644731      1.04749611     -1.85758714
O      -2.65941622      0.85555150      0.12205741
C      -3.06437005      2.21474291      0.08320431
C      -4.39982212      2.33837837      0.78770640
S      -0.05374129      1.13106681      1.60472943
C       1.12831375     -0.20256995      1.98076948
C       2.17872201     -0.44327494      0.90181210
S       3.37514335      0.92872650      0.81067851
O       4.16682437      0.90078018      2.08574707
C       4.43194263      0.21759857     -0.48974712
C       3.83229083      0.40006218     -1.86889041
H      -2.51011567     -3.91606541     -1.21597973
H      -0.78554342     -3.50807090     -1.04861947
H      -1.78683857     -3.65963672      0.39012236
H      -2.11477643     -1.51716386     -1.77383443
H      -3.12016439     -1.66727781     -0.31253727
H      -2.32333083      2.85241483      0.57389035
H      -3.16374534      2.52755316     -0.96049022
H      -5.14915634      1.69862111      0.30987702
H      -4.75584781      3.37221768      0.77106411
H      -4.31755949      2.00952334      1.82895505
H       0.55013063     -1.11986466      2.13221461
H       1.60413392      0.03505435      2.93826910
H       2.74375511     -1.34792040      1.15144482
H       1.72086026     -0.59611825     -0.07695813
H       4.62002005     -0.83770260     -0.27130488
H       5.38932881      0.74644232     -0.43940585
H       2.90515372     -0.16778103     -1.98593354
H       4.53335722      0.04857932     -2.63267923
H       3.61116408      1.45322459     -2.07186593
