16
COc1c(Cl)cc(Cl)c(Cl)c1Cl
C       2.56608749     -0.52430045      0.26003325
O       1.70949220     -0.38085551     -0.87587753
C       0.41840548     -0.11588002     -0.48494940
C      -0.47935602     -1.17241261     -0.28994750
Cl     -0.00258206     -2.81943065     -0.49292444
C      -1.80039999     -0.91205201      0.06723799
C      -2.23812112      0.40682851      0.21232749
Cl     -3.89328506      0.63699056      0.66330892
C      -1.36005864      1.47967846     -0.01050802
Cl     -1.92232609      3.11500098      0.15883022
C      -0.02735653      1.21356988     -0.37208804
Cl      1.08669092      2.50805296     -0.69763542
H       2.27199737     -1.37992336      0.87651156
H       2.58303366      0.38620756      0.86813277
H       3.58039600     -0.70482058     -0.10799854
H      -2.49261762     -1.73665371      0.22554668
