54
CCC1(O)C(=O)OCc2c1cc1n(c2=O)Cc2cc3c(CN(C)C)c(O)ccc3nc2-1
C      -6.02376318      1.15850542      0.97422812
C      -5.74737153      0.83464526     -0.48808278
C      -5.19534572     -0.57733490     -0.76298638
O      -4.95079230     -0.65931318     -2.18142981
C      -6.29025646     -1.62003835     -0.44604379
O      -7.19884591     -1.84260128     -1.24857316
O      -6.26252906     -2.23697455      0.75301469
C      -5.04725962     -2.43450904      1.50595672
C      -3.85508311     -1.72092142      0.97760546
C      -3.89813807     -0.86526062     -0.06076065
C      -2.68162154     -0.19654355     -0.50911944
C      -1.53203894     -0.44508824      0.12555942
N      -1.47564106     -1.32363025      1.19096346
C      -2.56102552     -1.99988448      1.68522141
O      -2.51137300     -2.77316143      2.63591456
C      -0.10919980     -1.44395269      1.71241501
C       0.65479453     -0.50886857      0.82616953
C       1.99154407     -0.16882993      0.80924741
C       2.45448072      0.76366114     -0.15455643
C       3.81667340      1.18604236     -0.27179760
C       4.89771251      0.67927143      0.67846222
N       6.23681836      0.54765578      0.05045209
C       6.28504078     -0.63727793     -0.82670972
C       7.26761883      0.42382032      1.09375116
C       4.12646900      2.16434030     -1.23590001
O       5.39561308      2.64690756     -1.40408244
C       3.16158548      2.69149839     -2.08127190
C       1.84746391      2.24940664     -1.98246090
C       1.46817755      1.30551266     -1.04564657
N       0.16697386      0.96659397     -1.03089705
C      -0.19032154      0.07413138     -0.10437905
H      -6.37416412      2.19463403      1.05144257
H      -5.12713645      1.07056789      1.59003273
H      -6.80238879      0.51375161      1.39568442
H      -6.67674955      0.97789345     -1.05492667
H      -5.05611388      1.58873801     -0.88671243
H      -5.81440453     -0.83780100     -2.59990053
H      -4.87066995     -3.51663411      1.52521147
H      -5.25621107     -2.10976424      2.53135040
H      -2.71867565      0.48379508     -1.35707776
H       0.22307018     -2.48255184      1.61023367
H      -0.09528342     -1.13311002      2.76213396
H       2.64867460     -0.62206610      1.54269536
H       4.94256967      1.41512857      1.49374845
H       4.63375445     -0.28415467      1.12570046
H       7.27520280     -0.71859478     -1.29220339
H       6.08604421     -1.56981684     -0.28299095
H       5.56004170     -0.55260463     -1.64881454
H       7.27962942      1.31906778      1.72897688
H       8.26198773      0.35042176      0.64087437
H       7.11177980     -0.45683601      1.73225903
H       5.99866209      2.02985581     -0.92893344
H       3.43325027      3.44055029     -2.82047355
H       1.09677077      2.66172774     -2.65461958
