26
O=C1C=CC(=O)C=C1.Oc1ccc(O)cc1
O      -2.20608231     -1.46495976      0.23421007
C      -1.19103503     -0.79091263      0.12644703
C      -1.25550417      0.67938413      0.00871241
C      -0.14648536      1.41583345     -0.10902730
C       1.19103503      0.79091264     -0.12644696
O       2.20608230      1.46495977     -0.23421009
C       1.25550414     -0.67938413     -0.00871238
C       0.14648534     -1.41583349      0.10902725
O      -2.70741483      0.39002980     -0.25301000
C      -1.36758236      0.17427655     -0.12141399
C      -0.86723795     -1.06945420      0.25452483
C       0.51225575     -1.24217533      0.37613333
C       1.36758247     -0.17427664      0.12141342
O       2.70741490     -0.39002943      0.25301037
C       0.86723810      1.06945371     -0.25452605
C      -0.51225565      1.24217524     -0.37613359
H      -2.24413714      1.12201147      0.02317612
H      -0.17626886      2.49518935     -0.19636045
H       2.24413716     -1.12201137     -0.02317603
H       0.17626888     -2.49518942      0.19636033
H      -3.17459342     -0.43590411     -0.04570735
H      -1.52645254     -1.90750924      0.45505821
H       0.92070499     -2.20537314      0.66838847
H       3.17459327      0.43590474      0.04570871
H       1.52645257      1.90750824     -0.45505991
H      -0.92070530      2.20537382     -0.66838645
