26
Oc1c(Cl)cc(Cl)cc1Cc1ccccc1
O      -1.12575665     -2.52070729     -0.67468543
C      -1.71123965     -1.39369131     -0.15940154
C      -2.78969109     -1.49377789      0.73019694
Cl     -3.39835855     -3.04257852      1.18852412
C      -3.38277238     -0.34887300      1.25470769
C      -2.88910766      0.89867190      0.88552076
Cl     -3.60996271      2.32348747      1.52738662
C      -1.81486592      1.00750190     -0.00014856
C      -1.21118151     -0.14214613     -0.53924476
C      -0.03491780      0.00122063     -1.47882422
C       1.26896224      0.28715757     -0.76903610
C       1.78145484      1.59086917     -0.70753144
C       2.97915228      1.84982785     -0.03866739
C       3.67473857      0.81061877      0.57648811
C       3.17381386     -0.48858766      0.52438953
C       1.97673976     -0.74949370     -0.14380222
H      -1.59676810     -3.29015062     -0.30228235
H      -4.21783447     -0.42673947      1.94460970
H      -1.43898941      1.99273101     -0.26894240
H      -0.25269702      0.80449936     -2.19594895
H       0.08359629     -0.89300901     -2.10364283
H       1.25156465      2.41411012     -1.18063941
H       3.36945387      2.86328593      0.00323619
H       4.60662254      1.01326231      1.09745130
H       3.71398965     -1.29974684      1.00517920
H       1.59405437     -1.76774255     -0.17489257
