26
C=CC(=O)NCOCCCC
C       5.87533339      0.15870170      0.26233353
C       4.60366086     -0.12240011      0.57325226
C       3.48931450      0.43733793     -0.23210272
O       3.66570183      1.16708603     -1.19886295
N       2.26006037      0.05182044      0.22060356
C       1.07010837      0.49156291     -0.42816632
O       0.00491601     -0.09234437      0.29818399
C      -1.25734152      0.27421734     -0.25643268
C      -2.35286348     -0.38706444      0.57183341
C      -3.74319742     -0.04523343      0.04374919
C      -4.83225747     -0.70689117      0.87285190
H       6.69458731     -0.24642349      0.84587918
H       6.12510610      0.79841716     -0.58028920
H       4.36672066     -0.76064710      1.41456670
H       2.13590571     -0.54992122      1.01887100
H       1.07700087      0.14591191     -1.46758112
H       1.02201819      1.58528116     -0.39111497
H      -1.31268492     -0.06477905     -1.29743258
H      -1.36728449      1.36453571     -0.22849510
H      -2.20259880     -1.47399767      0.57048275
H      -2.25613147     -0.07253033      1.61859815
H      -3.83639435     -0.37173122     -0.99854493
H      -3.89035450      1.04095558      0.05795848
H      -4.78703404     -0.37630872      1.91545635
H      -5.81951624     -0.44868019      0.47716975
H      -4.73277548     -1.79687536      0.85305661
