55
Nc1nc2c(ncn2COCCOC(=O)c2ccc(CN3CCOCC3)cc2)c(=O)[nH]1
N      -5.10257932     -2.44578310      2.28212451
C      -5.59785584     -1.27211994      1.81564154
N      -5.40276222     -0.93285507      0.56994410
C      -5.94882626      0.26398655      0.25017220
C      -6.65509208      1.12423920      1.06098103
N      -7.05021254      2.24781451      0.38005413
C      -6.57920401      2.07182381     -0.83916679
N      -5.90126384      0.88464571     -0.96372850
C      -5.28831671      0.38056145     -2.17346277
O      -4.44670398      1.39332576     -2.72658529
C      -3.05264248      1.12269578     -2.57771098
C      -2.55656633      1.25412495     -1.13607474
O      -1.12371964      1.17615708     -1.06851782
C      -0.60540995     -0.07442181     -1.15145263
O      -1.24651303     -1.10027747     -1.31853266
C       0.87692043     -0.04089190     -1.02746213
C       1.57527973     -1.25224687     -1.11695782
C       2.96858866     -1.27615130     -1.00740498
C       3.68515030     -0.08918133     -0.80266844
C       5.19748056     -0.10887781     -0.69671623
N       5.70022765      0.51996296      0.53518117
C       5.37189980     -0.25403710      1.75432236
C       6.19804047     -1.54029613      1.92497441
O       7.60426892     -1.26843330      1.88886552
C       7.96585011     -0.60297568      0.67336250
C       7.16824212      0.69919605      0.48696093
C       2.98147660      1.12193837     -0.71894493
C       1.58815904      1.14822216     -0.82734450
C      -6.85907238      0.73569049      2.43952845
O      -7.44553653      1.39227168      3.29429864
N      -6.29924039     -0.50336971      2.72239307
H      -4.76738437     -3.03995413      1.52892198
H      -5.68154805     -2.94897298      2.94127212
H      -6.69045195      2.76305696     -1.66538198
H      -4.75434316     -0.55368427     -1.97188743
H      -6.10036829      0.18157149     -2.88006181
H      -2.51770199      1.84974402     -3.19967807
H      -2.81737916      0.14092339     -3.00421612
H      -3.00616910      0.50559035     -0.47497916
H      -2.85082785      2.22980461     -0.73352834
H       1.03627293     -2.18510297     -1.27283855
H       3.48764956     -2.22921431     -1.08164966
H       5.57011489      0.44464944     -1.56940742
H       5.56743499     -1.13466359     -0.80932734
H       4.30247440     -0.48564653      1.80567974
H       5.57539375      0.39910490      2.61327030
H       5.97744152     -1.99068858      2.89813842
H       5.95530622     -2.28438251      1.15824289
H       9.03465961     -0.37298020      0.73100278
H       7.82390748     -1.28960225     -0.16881459
H       7.46629371      1.19502291     -0.44443851
H       7.43882512      1.38870020      1.29738546
H       3.52384325      2.05231322     -0.55652380
H       1.07566859      2.10381828     -0.74984969
H      -6.36917896     -0.79405550      3.68259547
