30
CCCCC(=O)OCn1c(=O)[nH]cc(F)c1=O
C       5.13763689      0.78179855     -0.35415520
C       3.64182443      0.75923337     -0.08063453
C       3.21108796     -0.56303000      0.55912220
C       1.71521184     -0.60067867      0.87042512
C       0.85482981     -0.72554580     -0.36601579
O       1.24466085     -1.06824946     -1.47269347
O      -0.43516672     -0.42588004     -0.05479167
C      -1.31842782     -0.54080896     -1.17211344
N      -2.64612063     -0.18766399     -0.72337441
C      -3.02026760      1.14484735     -0.79235902
O      -2.31402596      2.04818510     -1.23299779
N      -4.27997255      1.43762627     -0.32791049
C      -5.13747675      0.51238122      0.19307126
C      -4.77844872     -0.76573598      0.27947612
F      -5.59299327     -1.70759499      0.78956036
C      -3.44108221     -1.19538636     -0.19111620
O      -3.10063843     -2.37260556     -0.10007704
H       5.70802695      0.66080576      0.57230658
H       5.42268267     -0.02134713     -1.04120363
H       5.42551794      1.73525917     -0.80799652
H       3.38644688      1.59342643      0.58318968
H       3.10609513      0.92014118     -1.02257759
H       3.48340407     -1.39929318     -0.09611155
H       3.76369468     -0.69987285      1.49685471
H       1.50053829     -1.46953370      1.50273794
H       1.42898027      0.30526818      1.41653766
H      -1.31196018     -1.57093715     -1.54758916
H      -0.99972315      0.13815988     -1.97189266
H      -4.54772247      2.41483120     -0.38537127
H      -6.10661222      0.86220016      0.53002061
