43
CCCCOC(=O)c1ccccc1C(=O)OCc1ccccc1
C       4.18194830      2.82742881      1.89674533
C       3.76417241      2.51055862      0.46907004
C       2.86176029      1.28134548      0.40736605
C       2.46571650      0.94655592     -1.02734593
O       1.58500722     -0.18813187     -1.04508068
C       2.19154682     -1.40016822     -1.04856038
O       3.38979145     -1.62241473     -1.10318853
C       1.16340777     -2.45875259     -1.11345799
C       1.37270475     -3.50092833     -2.02933536
C       0.41477061     -4.50616083     -2.18042929
C      -0.75258359     -4.48019972     -1.41633566
C      -0.95866835     -3.45761536     -0.48815628
C       0.00290296     -2.44796560     -0.33082208
C      -0.19017711     -1.43942988      0.72504849
O       0.63344331     -1.18654502      1.58511414
O      -1.40141412     -0.86425378      0.55608525
C      -1.66841930      0.18842811      1.48478186
C      -2.93015488      0.88167119      1.04153385
C      -4.16987110      0.55426528      1.60786567
C      -5.33567840      1.19154916      1.17754301
C      -5.27425827      2.15310438      0.17151937
C      -4.05014012      2.47641171     -0.40616385
C      -2.88371601      1.84115833      0.02291817
H       4.73567062      1.99170264      2.33605370
H       4.82909558      3.70951496      1.91708916
H       3.31057678      3.03179887      2.52679627
H       4.65937372      2.34223493     -0.13749677
H       3.24420409      3.37634006      0.04469077
H       1.95729118      1.44320454      1.00753411
H       3.37033752      0.42112645      0.85896066
H       3.34430022      0.77175780     -1.66166451
H       1.91468731      1.78203023     -1.47148065
H       2.28003416     -3.52528875     -2.63261669
H       0.57933298     -5.30940269     -2.89600816
H      -1.49665460     -5.26471425     -1.53466984
H      -1.86158022     -3.45887895      0.12029919
H      -0.84239202      0.91148870      1.50497889
H      -1.79039988     -0.22924194      2.49154297
H      -4.23729110     -0.19955480      2.38962978
H      -6.28960935      0.93959522      1.63178752
H      -6.18209177      2.64874944     -0.16344929
H      -4.00230159      3.22221781     -1.19415442
H      -1.93467478      2.09540869     -0.44303534
