35
CCN1c2ccccc2C(=O)N(C)c2ccccc21
C      -2.23907378     -0.89708049     -2.18365364
C      -1.30803391      0.15396074     -1.58806330
N      -1.16500131     -0.03028624     -0.12157299
C      -0.90207873      1.20794336      0.50901046
C      -1.95860939      1.79742879      1.22962163
C      -1.78863251      3.00447540      1.90780947
C      -0.55626834      3.64479145      1.87351081
C       0.49804450      3.07380569      1.16006095
C       0.33801606      1.84888931      0.48204111
C       1.48987537      1.36882309     -0.31696883
O       2.19354260      2.25406578     -0.81855369
N       1.82109788      0.01024770     -0.44910029
C       3.09645731     -0.26288483     -1.11043692
C       1.08756584     -1.11176710      0.06573943
C       1.78496282     -2.29114188      0.40676878
C       1.12876870     -3.42996950      0.88388665
C      -0.24909294     -3.42289247      1.02862204
C      -0.96195352     -2.27705972      0.69118939
C      -0.31585448     -1.12164659      0.20007013
H      -1.80440222     -1.89977488     -2.12753767
H      -2.42858209     -0.67688513     -3.23911226
H      -3.20033782     -0.91282563     -1.65941475
H      -0.34561868      0.13277033     -2.11350801
H      -1.76052071      1.13248452     -1.80206849
H      -2.92332897      1.29586717      1.26661560
H      -2.61700322      3.43955846      2.46047966
H      -0.41375051      4.58887067      2.39283775
H       1.45467708      3.59278084      1.12440674
H       3.88167162     -0.33943383     -0.35163602
H       3.37055615      0.53733588     -1.80481420
H       3.03646567     -1.18408305     -1.69932014
H       2.86849324     -2.34119457      0.34106167
H       1.70079728     -4.31544580      1.14916097
H      -0.76904860     -4.29933570      1.40479860
H      -2.04380038     -2.27039176      0.80806936
