32
CCCOC(=O)Oc1ccc(NC(C)=O)cc1
C      -6.54509848      1.40974200     -0.46612176
C      -5.14499633      1.80036226     -0.90379461
C      -4.08008001      0.94482418     -0.22839797
O      -2.79853109      1.37971203     -0.69649736
C      -1.75109420      0.68944544     -0.16975191
O      -1.84488521     -0.22192342      0.64061771
O      -0.58734625      1.20811429     -0.71205262
C       0.57655967      0.58232573     -0.26255073
C       1.06011536      0.82148438      1.02022168
C       2.25281105      0.21535622      1.42238966
C       2.97026165     -0.61137401      0.54377885
N       4.16318015     -1.18340169      1.03238144
C       5.03256271     -2.02350517      0.36015944
C       6.19836885     -2.44267478      1.22123541
O       4.92151955     -2.43854616     -0.78762195
C       2.47701736     -0.81772440     -0.74796327
C       1.28238761     -0.21638298     -1.15627457
H      -6.75833670      0.36629971     -0.71920190
H      -6.66689946      1.53316756      0.61472183
H      -7.28824884      2.03904417     -0.96567174
H      -5.05554392      1.70670845     -1.99275513
H      -4.96532856      2.85805122     -0.67659111
H      -4.13372512      1.06744821      0.85981998
H      -4.22611023     -0.11067593     -0.48674866
H       0.51718368      1.46467346      1.70595527
H       2.61192616      0.40083914      2.43121137
H       4.40040219     -0.95729333      1.98984652
H       6.54097757     -1.61274607      1.84598634
H       5.89779400     -3.28129698      1.85468882
H       7.03042710     -2.75077430      0.58148341
H       2.99972533     -1.44192085     -1.46595044
H       0.91300439     -0.37735838     -2.16484643
