54
CC(C)CCCCCCCCOCCCNCCC#N
C       5.46090199      1.65779287     -1.65216786
C       3.94008994      1.53476547     -1.77415272
C       3.50371225      1.91502783     -3.18982155
C       3.49848139      0.11189013     -1.38359332
C       1.97789595     -0.06056145     -1.33935111
C       1.58702152     -1.44562953     -0.81481225
C       0.06648299     -1.60890523     -0.79055732
C      -0.39725692     -2.99303332     -0.32842493
C       0.00180586     -3.39379959      1.09528721
C      -0.39464165     -2.43295117      2.22359009
C      -1.89998230     -2.24715026      2.40720221
O      -2.41359629     -1.45557734      1.34283250
C      -3.77843357     -1.07740201      1.51004080
C      -3.90905580      0.20867492      2.32794162
C      -3.10591663      1.37761479      1.74837745
N      -3.65057739      1.80105414      0.45430535
C      -2.77459781      2.75524373     -0.23801144
C      -1.56246431      2.08604496     -0.89659730
C      -0.77697710      3.07357184     -1.64726090
N      -0.15611710      3.86069007     -2.23197652
H       5.78951133      1.43071899     -0.63244036
H       5.97151970      0.96972711     -2.33461853
H       5.78949796      2.67558917     -1.88808013
H       3.48846246      2.24812114     -1.07302621
H       3.89120599      2.90253136     -3.46334420
H       3.87139315      1.19234854     -3.92612680
H       2.41378827      1.96235327     -3.27228669
H       3.90842530     -0.12544134     -0.39335528
H       3.92736275     -0.61633357     -2.08377865
H       1.55503759      0.07404374     -2.34107414
H       1.54097915      0.71032641     -0.69343985
H       1.99639119     -1.57614481      0.19308184
H       2.03083700     -2.22058831     -1.45109387
H      -0.32598423     -1.44058943     -1.80151708
H      -0.37442252     -0.83132332     -0.15904208
H       0.00229940     -3.74625408     -1.01965134
H      -1.48727611     -3.05077320     -0.42895255
H       1.08912140     -3.53381157      1.13220273
H      -0.43099786     -4.38007248      1.30634193
H       0.01448168     -2.83572037      3.15840237
H       0.08186606     -1.45944231      2.06195429
H      -2.07678057     -1.73994183      3.36163084
H      -2.41034872     -3.21650332      2.42659486
H      -4.19461398     -0.92426310      0.50875419
H      -4.34946222     -1.89171973      1.97150416
H      -3.54743969      0.02815784      3.34688164
H      -4.96801066      0.48098932      2.41222672
H      -3.14919772      2.21980654      2.44952328
H      -2.05515206      1.08168981      1.66713519
H      -4.56062430      2.23688206      0.61199113
H      -2.46256842      3.55780343      0.44262665
H      -3.37242655      3.23833353     -1.02177323
H      -1.89545003      1.29045382     -1.57362968
H      -0.91819975      1.62168589     -0.14332048
