27
CCOc1ccc(NC(=O)CO)cc1
C      -5.23488938     -0.11472293      0.29054611
C      -3.80329574     -0.51513368     -0.01796100
O      -2.94830801      0.54255822      0.41285604
C      -1.60606862      0.37457547      0.21725773
C      -0.81475996      1.43960720      0.64781390
C       0.57568080      1.39739688      0.50705302
C       1.19704878      0.28480615     -0.06813193
N       2.59814766      0.31326015     -0.17461235
C       3.43693581     -0.65494464     -0.69879997
O       3.11572456     -1.73127995     -1.18949296
C       4.90365830     -0.21699725     -0.62932270
O       5.14707370      0.71362273      0.42193647
C       0.40446049     -0.77935379     -0.49830569
C      -0.99021981     -0.73568475     -0.35676883
H      -5.49352211      0.81755656     -0.22243491
H      -5.93407238     -0.89549012     -0.02171875
H      -5.36212308      0.06574564      1.36312622
H      -3.56648996     -1.43947841      0.52149671
H      -3.70071092     -0.67169949     -1.09800765
H      -1.28471717      2.31139831      1.09649248
H       1.15847099      2.24681268      0.85305565
H       3.07649410      1.14060031      0.17416870
H       5.16780050      0.25646705     -1.57922871
H       5.53862251     -1.09433554     -0.47358519
H       5.13949096      0.19937077      1.25037839
H       0.83892689     -1.66481042     -0.95211052
H      -1.55935890     -1.58984717     -0.70822545
