42
CC1=C(CC(=O)O)c2cc(F)ccc2/C1=C\c1ccc(S(C)=O)cc1
C      -2.00824623     -2.90946664     -1.02141299
C      -1.99169754     -1.45149979     -0.70086679
C      -3.05127796     -0.61880389     -0.61519568
C      -4.50071740     -0.89388674     -0.84465801
C      -5.25233869     -1.05356933      0.45964012
O      -4.81930756     -1.41941640      1.53924565
O      -6.56878477     -0.78661332      0.31784623
C      -2.54385354      0.71728712     -0.25969247
C      -3.24729445      1.89750771     -0.06077689
C      -2.52645700      3.04145304      0.26696414
F      -3.18174499      4.19359778      0.46295635
C      -1.13555400      3.01867344      0.39427679
C      -0.43070865      1.82833722      0.19480658
C      -1.14163734      0.68051842     -0.12902880
C      -0.75358801     -0.71391569     -0.40445597
C       0.47103588     -1.27047740     -0.39827879
C       1.73823135     -0.60571772     -0.09691664
C       2.19757772     -0.53642017      1.22241535
C       3.40726470      0.10027314      1.51263665
C       4.16970800      0.66563039      0.48431898
S       5.72884645      1.49055488      0.87992766
C       6.72631196     -0.00746181      1.08550736
O       6.17942760      2.15349886     -0.38907656
C       3.70601839      0.59900315     -0.83367257
C       2.49686046     -0.03790415     -1.12459623
H      -1.56232715     -3.48887001     -0.20603100
H      -1.44639433     -3.10803168     -1.94003180
H      -3.02163781     -3.29301932     -1.16817261
H      -4.65113882     -1.80853894     -1.42648227
H      -4.94582324     -0.07448067     -1.42088387
H      -6.93589839     -0.94623215      1.21327381
H      -4.32480359      1.95400638     -0.15150610
H      -0.60846203      3.93349794      0.64843991
H       0.64756961      1.82894057      0.29454348
H       0.59424424     -2.32624344     -0.62741729
H       1.61037259     -0.96831646      2.03032894
H       3.74081559      0.15451284      2.54593502
H       6.37171311     -0.57128819      1.95151292
H       7.76449419      0.28969172      1.25260449
H       6.66837182     -0.62376980      0.18484355
H       4.28211933      1.04523011     -1.64218494
H       2.14871053     -0.07827100     -2.15440794
