38
CCNC(=O)Nc1c(C)n(C)n(-c2ccccc2)c1=O
C       6.48678913      0.16250999     -0.63145952
C       5.33518794     -0.62234519     -0.03463659
N       4.05916286     -0.02889988     -0.37966844
C       2.91378792     -0.46353592      0.25777006
O       2.92440233     -1.27257157      1.17473088
N       1.80736668      0.15790797     -0.26216818
C       0.49399409     -0.06435574      0.04903154
C      -0.19092449     -1.09670570      0.56737649
C       0.31525777     -2.45696629      0.92483715
N      -1.56339009     -0.81451771      0.72201488
C      -2.12522565     -0.95980362      2.07884650
N      -1.75818537      0.48552479      0.16661435
C      -3.02465428      0.90509880     -0.31659590
C      -4.11116470      0.01861868     -0.37732090
C      -5.35901612      0.43558758     -0.85184037
C      -5.54006348      1.74830832     -1.27587496
C      -4.47319031      2.64062783     -1.22979576
C      -3.22539673      2.22082271     -0.75628527
C      -0.52261369      0.99502052     -0.24094671
O      -0.22326657      2.04741383     -0.78834562
H       6.48683187      1.19503914     -0.26671930
H       7.44285196     -0.29733252     -0.36363329
H       6.41517069      0.19487753     -1.72373347
H       5.33835376     -1.65209610     -0.40828583
H       5.42750648     -0.65926997      1.05638711
H       3.91996254      0.19222621     -1.35567370
H       1.98200535      1.06365219     -0.68509059
H      -0.46558499     -3.20946112      0.76639604
H       0.61352685     -2.49553124      1.97671431
H       1.15665743     -2.75767207      0.29444642
H      -1.58370304     -0.32995085      2.79426653
H      -2.05444047     -2.00170177      2.40866751
H      -3.18234805     -0.68217327      2.11556223
H      -3.99469749     -1.02191863     -0.08712869
H      -6.18449128     -0.26999816     -0.89779542
H      -6.50811424      2.07421887     -1.64702672
H      -4.60649708      3.66727084     -1.56160999
H      -2.42184751      2.95208154     -0.72293804
