48
CCCCC/C(=C\c1ccccc1)C(OCC)OCC
C       4.97422703     -0.25801596     -0.39574268
C       3.48672457     -0.56991822     -0.33511872
C       2.76154444      0.36111485      0.63714857
C       1.27902131      0.01698452      0.81586864
C       0.46001416      0.19304829     -0.46822800
C      -1.04090212      0.12987702     -0.23542179
C      -1.81980656      1.22519895     -0.09731428
C      -1.34163770      2.60875708     -0.11327385
C      -0.85716079      3.20430644      1.05561036
C      -0.39861275      4.52272565      1.03326508
C      -0.42360113      5.25016722     -0.15619348
C      -0.90577489      4.66067318     -1.32437832
C      -1.36432494      3.34220696     -1.30380577
C      -1.66936765     -1.25208789     -0.21937160
O      -1.11252044     -2.03597061      0.83219596
C      -1.73820204     -1.79557295      2.08873653
C      -1.06362256     -2.66745882      3.12950260
O      -1.40494419     -1.85250908     -1.48886726
C      -2.05198102     -3.11179137     -1.63378098
C      -1.75498032     -3.64129202     -3.02312458
H       5.14585415      0.77032071     -0.72957997
H       5.44219284     -0.38383596      0.58584977
H       5.47421841     -0.93159030     -1.09878646
H       3.06704789     -0.47076583     -1.34191184
H       3.35036387     -1.61238286     -0.02517868
H       2.85929402      1.40001722      0.29901611
H       3.24669009      0.30309934      1.61951918
H       0.87370122      0.66069079      1.60576108
H       1.19737575     -1.01340505      1.17887768
H       0.74665766     -0.57023160     -1.20079107
H       0.73007286      1.14683939     -0.93702130
H      -2.89520526      1.13047567      0.03526946
H      -0.82988385      2.64432837      1.98685432
H      -0.01980860      4.98087344      1.94298769
H      -0.06450069      6.27589824     -0.17362431
H      -0.92154316      5.22563361     -2.25262337
H      -1.73076819      2.88800175     -2.22133160
H      -2.75960823     -1.18445114     -0.10237537
H      -1.63661025     -0.74235535      2.37070872
H      -2.80186022     -2.05061208      2.02760795
H      -1.51653233     -2.52109168      4.11403675
H       0.00442722     -2.43458739      3.19382654
H      -1.14335896     -3.72504937      2.85703091
H      -1.67754904     -3.81805839     -0.88521994
H      -3.13371624     -2.99331375     -1.50725643
H      -2.11123070     -2.94182159     -3.78663999
H      -2.23424079     -4.61137017     -3.18178918
H      -0.67557187     -3.75169925     -3.17092305
