17
COC(=O)CC(=O)OC
C       2.94003112      1.32456398      0.39297862
O       1.72137748      0.67628499      0.76005082
C       1.46957493     -0.46591623      0.06200842
O       2.21651178     -0.96309732     -0.77108343
C       0.16570295     -1.06467889      0.47961509
C      -1.01341567     -0.30441540     -0.03668438
O      -0.97422465      0.64376739     -0.80695183
O      -2.15898291     -0.84397413      0.47478189
C      -3.35446466     -0.19662838      0.03463035
H       2.92599992      1.59814738     -0.66675124
H       3.02861297      2.23951668      0.98520263
H       3.79704907      0.68191243      0.61726210
H       0.12028850     -2.08910578      0.09449374
H       0.13676213     -1.10791445      1.57357384
H      -3.45655790     -0.27877070     -1.05196758
H      -3.35979210      0.85208926      0.34776390
H      -4.20447296     -0.70178080      0.50154746
