33
CC(=O)O.OCCN(CCO)CCO
C      -0.66998441      0.52537769     -0.33425687
C       0.19231287     -0.47899129      0.35585322
O      -0.10426173     -1.63128733      0.61972375
O       1.39851255      0.01926782      0.68428887
O       1.99075312      1.84579186      1.14131345
C       2.06967900      1.64186240     -0.26632871
C       1.42832849      0.29379361     -0.64014353
N       0.06127579      0.10729451     -0.07251084
C      -0.90363588      1.00358034     -0.77225368
C      -2.27497837      1.07460159     -0.07693043
O      -2.10002531      1.27169866      1.32405951
C      -0.35602367     -1.30934554     -0.22656302
C       0.41155341     -2.30462820      0.66220483
O      -0.21243765     -3.58603122      0.61309714
H      -1.63361747      0.06864661     -0.57703343
H      -0.19267662      0.84777608     -1.26288661
H      -0.84459817      1.37915554      0.32505333
H       1.85431298     -0.72994513      1.12214125
H       1.09692515      1.54527605      1.39472737
H       3.12639205      1.64764026     -0.55140973
H       1.58643143      2.48429667     -0.76850071
H       2.09286419     -0.46903550     -0.22165441
H       1.42869088      0.16503680     -1.72940829
H      -0.51319683      2.02627668     -0.75322726
H      -1.02664837      0.72113445     -1.82484934
H      -2.85787460      1.91293133     -0.47080926
H      -2.85894646      0.16246484     -0.22802153
H      -1.31348595      0.74283003      1.56030851
H      -1.41181823     -1.41868472      0.04502668
H      -0.29044073     -1.62893282     -1.27533988
H       1.44180049     -2.43598431      0.32179775
H       0.43149997     -1.97225945      1.70551607
H      -1.04668191     -3.52160833      1.10989932
