34
COC(=O)c1ccc(NC(=O)c2cc(Cl)ccc2Cl)cc1N
C       6.35015383      1.26002994     -0.67218985
O       4.92943514      1.12126144     -0.63167114
C       4.48903470      0.20391742      0.26727186
O       5.19787835     -0.46587729      1.00526129
C       3.00147788      0.10559908      0.23121855
C       2.23521267      1.15842801     -0.29299676
C       0.83861311      1.08184584     -0.32051461
C       0.18634180     -0.04973803      0.16215629
N      -1.21414336     -0.22273661      0.14558551
C      -2.17059411      0.67737152     -0.28061869
O      -1.96240725      1.79580036     -0.73807815
C      -3.58698665      0.21001526     -0.22502210
C      -4.42207208      0.65158677     -1.26836092
C      -5.76131800      0.27046495     -1.31096389
Cl     -6.76549890      0.80906407     -2.59836068
C      -6.29184075     -0.54668940     -0.31763406
C      -5.47670584     -0.97944865      0.72979180
C      -4.12782623     -0.60201258      0.78366246
Cl     -3.22634198     -1.15970896      2.14858975
C       0.95394051     -1.09856660      0.69011247
C       2.35495527     -1.02223438      0.77468958
N       3.05581977     -2.17083208      1.19481070
H       6.72960122      1.60129253      0.29606366
H       6.59546579      2.01392874     -1.42530231
H       6.81979057      0.31490764     -0.96233162
H       2.71157802      2.05331580     -0.68726922
H       0.29415829      1.92225189     -0.73998075
H      -1.54841425     -1.10166468      0.52378844
H      -4.01995117      1.29447306     -2.05052674
H      -7.33768828     -0.84352043     -0.34760847
H      -5.90523158     -1.60664132      1.50941357
H       0.46212864     -2.00208576      1.04276450
H       4.02666415     -1.95961569      1.45399480
H       2.58477071     -2.71418187      1.91025471
