35
CCOP(=S)(OCC)Oc1nc(Cl)n(C(C)C)n1
C      -3.54468749     -2.74693697     -1.53395924
C      -2.41604114     -1.90325094     -0.97905826
O      -2.61263164     -1.74802258      0.41661024
P      -1.73547198     -0.63912294      1.21874825
S      -1.96786214     -0.73313326      3.14369842
O      -2.19894103      0.72121294      0.46885649
C      -3.51373222      1.20078214      0.69312497
C      -3.84522004      2.21405391     -0.38277896
O      -0.26207994     -0.90380963      0.62815624
C       0.74750550     -0.06268238      0.83580391
N       0.71545989      1.12551144      1.49335126
C       1.95802810      1.52433390      1.39812310
Cl      2.60078177      2.95735656      2.03988869
N       2.70617469      0.62066743      0.70427488
C       4.12398520      0.63659693      0.37574677
C       4.35779167      0.49087982     -1.12871701
C       4.88070850     -0.43510895      1.15950833
N       1.92689058     -0.41891981      0.32162931
H      -4.51152134     -2.26969558     -1.34402171
H      -3.42924229     -2.89450284     -2.61131363
H      -3.57113378     -3.72589243     -1.04418625
H      -2.40393861     -0.92710372     -1.47236450
H      -1.45767390     -2.40114469     -1.15409009
H      -3.56185688      1.67398365      1.67812868
H      -4.23028984      0.37406952      0.65774069
H      -3.77409582      1.75818691     -1.37590481
H      -3.13313188      3.04552316     -0.36166364
H      -4.85547930      2.61069125     -0.24706401
H       4.51951937      1.61309543      0.67315678
H       3.81592560      1.26509015     -1.68356247
H       5.42270270      0.58931289     -1.36507757
H       4.02058421     -0.48328035     -1.49978502
H       4.55072686     -1.44334465      0.88596519
H       4.72124458     -0.31626006      2.23712192
H       5.95700205     -0.36913625      0.96810419
