25
CCOC(=O)CNC(=O)OCC
C      -4.88618928      0.36963359      0.50738365
C      -3.63514579      0.12114028     -0.31243402
O      -2.65198141     -0.47626897      0.54140181
C      -1.46089958     -0.73093725     -0.07123783
O      -1.22096934     -0.53078043     -1.25619987
C      -0.49220921     -1.36801051      0.91672572
N       0.87205340     -1.26470815      0.43755529
C       1.63014467     -0.17017943      0.72020012
O       1.34625470      0.69212832      1.53694803
O       2.73545060     -0.18367959     -0.06148097
C       3.60562352      0.93674876      0.13545464
C       4.78872665      0.78774308     -0.80117602
H      -5.26590163     -0.56857685      0.92533358
H      -5.66919464      0.82642694     -0.10426795
H      -4.66783714      1.02973081      1.35337452
H      -3.25607113      1.07093226     -0.70609946
H      -3.86498511     -0.55741738     -1.14150433
H      -0.57945157     -0.87309683      1.88876423
H      -0.73528801     -2.42982554      1.01041850
H       1.12090633     -1.72537211     -0.42795132
H       3.95619765      0.95539730      1.17353057
H       3.07023248      1.86578466     -0.09067120
H       4.45303782      0.74661566     -1.84268006
H       5.48450911      1.62363856     -0.68696775
H       5.32298692     -0.14706719     -0.60168332
