17
C#CC(O)CCC
C       2.43552623      1.47881991      0.88027854
C       1.89759394      0.49594167      0.44711538
C       1.24771033     -0.71188753     -0.08385181
O       2.11874362     -1.32360720     -1.03295122
C      -0.07316954     -0.40055422     -0.79172706
C      -1.16816627      0.07855302      0.16373265
C      -2.47823705      0.31976073     -0.57035294
H       2.91099879      2.35415627      1.25924564
H       1.07913136     -1.43700675      0.71991316
H       2.99170270     -1.38478199     -0.60932905
H      -0.41606960     -1.30406382     -1.31330828
H       0.09054626      0.34896231     -1.57781690
H      -0.86410566      1.00790878      0.65792697
H      -1.32956778     -0.66971025      0.94837805
H      -2.83592755     -0.59838169     -1.04721895
H      -2.35912628      1.08533916     -1.34368099
H      -3.24758349      0.66055160      0.12958460
