53
O=C(NCc1ccc(OC(F)(F)F)cc1)C1c2ccccc2C(=O)N1CCc1cccnc1
O       0.18063160     -2.58628046     -0.99088224
C      -0.17317507     -1.78919257     -0.12275202
N       0.38238195     -1.75895675      1.14444792
C       1.60333419     -2.46738541      1.44560550
C       2.79552374     -1.60720684      1.10837380
C       3.26391803     -0.64336485      2.01097768
C       4.33006190      0.19845260      1.67036653
C       4.93724419      0.09335603      0.41869450
O       5.97131068      0.85081948     -0.05059899
C       6.46320230      1.88495111      0.78348095
F       6.97209086      1.38767273      1.93201057
F       7.45639961      2.53113927      0.13205659
F       5.49761522      2.78583204      1.07137794
C       4.46948540     -0.86571223     -0.48387301
C       3.40596135     -1.70550548     -0.14715528
C      -1.17426065     -0.64631242     -0.41147462
C      -0.47220294      0.52379836     -1.04418659
C       0.22578182      0.59679887     -2.23873991
C       0.81893749      1.81685724     -2.58473537
C       0.70735113      2.94128034     -1.74533358
C      -0.00058567      2.86391369     -0.54483937
C      -0.57350369      1.64751602     -0.22402434
C      -1.37579307      1.29418941      0.95054518
O      -1.69268183      2.05820731      1.84095854
N      -1.71493952     -0.04065141      0.81729866
C      -2.72514849     -0.69756574      1.63445978
C      -4.15018345     -0.17427063      1.40016791
C      -4.64702182     -0.39455113     -0.00246479
C      -4.66387434      0.64582127     -0.93603681
C      -5.09593037      0.39944998     -2.23500210
C      -5.49900793     -0.88513142     -2.55915004
N      -5.49658223     -1.91518368     -1.68614716
C      -5.07586820     -1.64736408     -0.43033169
H       0.16434722     -0.94326020      1.70689698
H       1.63854800     -3.41566007      0.89763355
H       1.59695319     -2.70351874      2.51528732
H       2.79610267     -0.53342375      2.98776758
H       4.64780653      0.92878103      2.41006706
H       4.92848375     -0.95664801     -1.46624006
H       3.04451998     -2.42864278     -0.87758416
H      -1.99704651     -1.00933505     -1.03285325
H       0.32640936     -0.27013466     -2.88703038
H       1.37993523      1.89677273     -3.51471765
H       1.17916728      3.87832740     -2.03531819
H      -0.09960418      3.72031138      0.11426497
H      -2.66434104     -1.77844152      1.46733286
H      -2.46107100     -0.50842158      2.68166553
H      -4.20450134      0.89383393      1.64441723
H      -4.83468346     -0.67265493      2.09834427
H      -4.33648625      1.64551931     -0.65823440
H      -5.11750535      1.19010946     -2.97591391
H      -5.84582371     -1.12711685     -3.55975560
H      -5.09168254     -2.50181779      0.24209871
