26
CNC(=O)ON=CC(C)(C)SC
C      -4.69182832      1.39097457      1.20067463
N      -3.65117592      0.49472122      0.77712420
C      -2.36192657      0.92467718      0.59323035
O      -1.96925640      2.05128924      0.86887200
O      -1.61249047     -0.09301204      0.05390433
N      -0.29024873      0.33406266     -0.17525949
C       0.41204701     -0.66836179     -0.59456686
C       1.89332969     -0.54351431     -0.92319030
C       2.39792434      0.90118492     -0.89758779
C       2.10956443     -1.13595853     -2.32162154
S       2.82499860     -1.60565739      0.27176034
C       2.47045950     -0.75971081      1.83735522
H      -5.03186897      1.96542412      0.33499126
H      -5.51932566      0.79985461      1.59951918
H      -4.31861423      2.07557294      1.96705047
H      -3.88534275     -0.40468789      0.38288549
H      -0.04235484     -1.66969376     -0.71690995
H       2.19548455      1.40086808      0.05534101
H       1.89692599      1.49815759     -1.66957967
H       3.47524577      0.95700014     -1.09108406
H       1.76021531     -2.17367723     -2.38829818
H       1.54606843     -0.56852094     -3.07253968
H       3.16524472     -1.11075406     -2.61625687
H       2.89343196     -1.35109071      2.65444525
H       2.93832346      0.22682657      1.86257077
H       1.39516909     -0.67154034      2.00716988
