74
CCCCCCCCCCCCCCCCCCOCCCN(C)C
C       7.44753162     -5.14345140      0.46653262
C       7.33496756     -3.63118648      0.34602946
C       6.49144135     -3.04343389      1.47789695
C       6.43700553     -1.51312323      1.46549848
C       5.71161870     -0.94064874      0.24586075
C       5.57979258      0.58186326      0.34293501
C       4.84373874      1.15055241     -0.87189676
C       4.75560636      2.67952843     -0.87123257
C       4.02932575      3.30492611      0.32442075
C       2.60926680      2.79337912      0.58304160
C       1.65245819      3.03257129     -0.58675978
C       0.23396488      2.57068605     -0.24169711
C      -0.72537856      2.80163228     -1.41139334
C      -2.12682476      2.23073870     -1.17095713
C      -2.89921238      2.96025584     -0.06844230
C      -4.28422970      2.36055658      0.19686341
C      -5.26253172      2.54361922     -0.96744730
C      -6.66816685      2.04864414     -0.62153357
O      -6.67514026      0.69075022     -0.18542573
C      -6.59715233     -0.24974747     -1.25373094
C      -6.58186584     -1.66423265     -0.67774622
C      -5.31091161     -1.92058229      0.14773578
N      -5.15602590     -3.26834895      0.71905254
C      -6.17976550     -3.57685498      1.71339964
C      -5.07434614     -4.31466149     -0.29407059
H       6.46050584     -5.61465530      0.42235147
H       8.05276726     -5.54469537     -0.35233505
H       7.92281305     -5.42808776      1.41063940
H       8.33976454     -3.19376923      0.36385872
H       6.89065463     -3.39036921     -0.62547436
H       6.91189539     -3.36213344      2.43995764
H       5.47304166     -3.44795071      1.42986567
H       5.92107090     -1.18334333      2.37575871
H       7.45482508     -1.10804351      1.51544519
H       4.71442100     -1.39020335      0.16698875
H       6.25721206     -1.19506423     -0.66954902
H       5.04070638      0.83631588      1.26222496
H       6.57659790      1.03348327      0.41416995
H       5.36906719      0.84191776     -1.78458425
H       3.83946721      0.71616611     -0.93522847
H       5.77170645      3.09241035     -0.90955047
H       4.26768618      3.00074315     -1.79929194
H       3.99239208      4.39130168      0.17370084
H       4.62581993      3.14951130      1.23136370
H       2.63348661      1.72628474      0.83185274
H       2.22117090      3.30616198      1.47224480
H       1.99927386      2.49064134     -1.47354903
H       1.64065032      4.09931141     -0.84062035
H      -0.11352179      3.11488569      0.64326905
H       0.24937051      1.50482432      0.01601030
H      -0.31386040      2.32376376     -2.30932065
H      -0.79543546      3.87434652     -1.62869287
H      -2.05208001      1.16358554     -0.92949875
H      -2.67994581      2.30420599     -2.11399490
H      -2.99900185      4.02180967     -0.32453871
H      -2.33500416      2.91200878      0.86941619
H      -4.17703494      1.29589545      0.43604579
H      -4.70056621      2.84442579      1.08923911
H      -5.31868466      3.60324521     -1.24279905
H      -4.89316037      2.00284358     -1.84409129
H      -7.34808663      2.17934235     -1.47146026
H      -7.06714300      2.64936282      0.20320371
H      -7.47459035     -0.13122505     -1.89965716
H      -5.69579472     -0.08125897     -1.85203830
H      -7.46662084     -1.79824214     -0.04535531
H      -6.64846371     -2.37472965     -1.50827290
H      -4.43251230     -1.71328269     -0.47770898
H      -5.25352154     -1.19297345      0.96746553
H      -5.94234302     -4.51753286      2.22303221
H      -7.17852538     -3.67471591      1.27465427
H      -6.21512618     -2.80322784      2.48842206
H      -4.29705725     -4.08343990     -1.03050892
H      -6.02082363     -4.46541617     -0.82382485
H      -4.79262922     -5.26786648      0.16752135
