52
CN(C)CCCOC1(Cc2ccccc2)CCCCCC1
C       4.45707119     -1.55733599      1.35928963
N       4.41579531     -0.19347726      0.82501358
C       5.66598551      0.49980512      1.14943884
C       4.19674655     -0.18051964     -0.63144091
C       2.82098490     -0.68906528     -1.07305202
C       1.66703946      0.07782121     -0.43326878
O       0.45595763     -0.42324209     -0.99742026
C      -0.80076798      0.06999584     -0.47240306
C      -0.86354849      1.62060863     -0.66957652
C      -2.18368140      2.31026203     -0.40686017
C      -2.50051395      2.78397930      0.87389990
C      -3.71896447      3.42127519      1.11439210
C      -4.63122798      3.59793564      0.07648907
C      -4.32411746      3.14127206     -1.20324858
C      -3.10595689      2.50397352     -1.44480601
C      -1.88910154     -0.62047548     -1.34187894
C      -1.73755326     -2.13706968     -1.50386669
C      -2.36511847     -2.98595695     -0.40425782
C      -2.18791273     -2.52378737      1.03728268
C      -0.88430878     -1.79447629      1.34569987
C      -0.96530532     -0.30031134      1.01898907
H       5.23486469     -2.16476608      0.88264919
H       4.64893902     -1.54082013      2.43839789
H       3.49417500     -2.06209168      1.23309443
H       6.53775458      0.01521010      0.69486643
H       5.63023420      1.53991749      0.80653185
H       5.81659115      0.53556634      2.23427509
H       4.97414767     -0.76285475     -1.14341226
H       4.29052158      0.85129613     -0.99556542
H       2.74542541     -0.60022380     -2.16475705
H       2.71066292     -1.76069329     -0.86806618
H       1.67740966     -0.07212465      0.64850342
H       1.77083430      1.14364868     -0.65633236
H      -0.10849376      2.10285525     -0.03420624
H      -0.53959930      1.86192677     -1.69222292
H      -1.79811315      2.66097824      1.69537024
H      -3.95492014      3.78190714      2.11210245
H      -5.57935066      4.09465792      0.26392065
H      -5.03251739      3.28259770     -2.01524881
H      -2.88099585      2.15818938     -2.45144617
H      -1.81346166     -0.20285718     -2.35550374
H      -2.89617131     -0.38724150     -0.97716779
H      -0.68507595     -2.41766802     -1.62172083
H      -2.21678392     -2.42809845     -2.44824117
H      -3.44127240     -3.08226598     -0.59852616
H      -1.96159156     -4.00263880     -0.49905120
H      -2.25516920     -3.41051145      1.68085367
H      -3.04080219     -1.89410221      1.32068804
H      -0.71042387     -1.87898719      2.42636326
H      -0.02889536     -2.27520940      0.85925834
H      -0.19137947      0.20732721      1.60671660
H      -1.91804489      0.08586507      1.39946175
