28
CCOc1ccc(C(=O)O)c2ccccc12
C       4.38383468      0.31497381     -0.78817197
C       3.16092084     -0.53250780     -0.48597863
O       2.03960661      0.34098406     -0.37410980
C       0.81010855     -0.21127496     -0.09837434
C       0.59987107     -1.57940380      0.07415994
C      -0.67608270     -2.05983670      0.35272987
C      -1.76494439     -1.18142822      0.46158152
C      -3.09129670     -1.77238759      0.79191088
O      -3.98548498     -1.27707463      1.44939584
O      -3.23810874     -2.99741374      0.24882185
C      -1.58556647      0.21826167      0.28825916
C      -2.63552715      1.17018849      0.36382419
C      -2.41574267      2.53692506      0.18402140
C      -1.13816249      2.99759711     -0.08207169
C      -0.08537045      2.08891030     -0.17086841
C      -0.27574412      0.69888694      0.00538442
H       4.24317423      0.87717768     -1.71734096
H       4.54965443      1.04969372      0.00675128
H       5.27670354     -0.30909111     -0.88444656
H       3.32202629     -1.06793983      0.45662724
H       3.00878671     -1.24421145     -1.30541055
H       1.40621477     -2.30125339      0.00143626
H      -0.81450389     -3.13017485      0.49264638
H      -4.14278120     -3.26313786      0.51711123
H      -3.65880167      0.86064489      0.56616499
H      -3.24651261      3.23419438      0.25393031
H      -0.95484593      4.05916934     -0.22301309
H       0.90857446      2.47952849     -0.38497076
