17
Cc1cccnc1C
C      -1.70155564     -1.03458962      0.09214934
C      -0.29015601     -0.53453438      0.00998616
C       0.77295217     -1.44107837     -0.07242667
C       2.07999616     -0.97464168     -0.14846112
C       2.28471603      0.39162467     -0.13968605
N       1.28845519      1.29837741     -0.06154123
C       0.01591214      0.83251757      0.01229943
C      -1.05834425      1.87823055      0.09765001
H      -2.28475182     -0.67265644     -0.76048236
H      -2.17081281     -0.70118560      1.02313387
H      -1.74087902     -2.12905509      0.07715441
H       0.58871572     -2.51243401     -0.07779441
H       2.91704564     -1.65998182     -0.21289413
H       3.28568376      0.80879746     -0.19695613
H      -0.62390981      2.88345435      0.08597431
H      -1.73849759      1.79783863     -0.75575072
H      -1.62456987      1.76931636      1.02764530
