15
NCC(O)CO
N      -1.44199606      0.84840728      0.87228077
C      -1.22308284      0.06069105     -0.35006040
C       0.27209917     -0.03365697     -0.69564376
O       0.85199310      1.28294492     -0.63550483
C       1.05872324     -0.93574040      0.25788101
O       2.42471334     -0.98548118     -0.15644893
H      -1.15966410      0.30390071      1.68889510
H      -2.44589627      1.00166103      0.98765855
H      -1.73537653      0.58381945     -1.16538964
H      -1.67219371     -0.93299405     -0.25315032
H       0.39973247     -0.38722358     -1.72458515
H       0.30656152      1.75907410      0.02756688
H       1.04936745     -0.54637115      1.28063823
H       0.66321741     -1.95545685      0.26072979
H       2.65180180     -0.06357437     -0.39486730
