63
CCCCC(=O)OC1CCC2(C)C(=CCC3C4CCC(=O)C4(C)CCC32)C1
C       7.61461443      0.24554081      1.71289335
C       6.88032234     -0.60739816      0.69050986
C       6.59616407      0.17900923     -0.59085444
C       5.91140621     -0.67005139     -1.65852570
C       4.52791843     -1.11744324     -1.25727942
O       4.20040250     -2.28859779     -1.12689770
O       3.70947621     -0.04388771     -1.08569035
C       2.35500814     -0.33672255     -0.69090819
C       1.51433513     -0.64477813     -1.93032647
C       0.04014325     -0.83215040     -1.57070910
C      -0.59497915      0.36771241     -0.80536428
C      -0.70648258      1.58279123     -1.75912593
C       0.33157171      0.76482842      0.35036918
C      -0.11240914      0.98589878      1.59916488
C      -1.54133963      0.88477875      2.02293861
C      -2.54070801      0.83747089      0.85428160
C      -3.96664669      0.49281427      1.35063743
C      -4.09198671     -0.75756087      2.23636298
C      -5.59005491     -1.03403664      2.29985424
C      -6.06743729     -0.53165306      0.96282540
O      -7.19867190     -0.72726843      0.53520344
C      -4.98432729      0.23491804      0.21507565
C      -5.53959723      1.54109191     -0.35302400
C      -4.42115646     -0.68399845     -0.87758803
C      -3.06955639     -0.21295830     -1.39861060
C      -2.02067814     -0.08466681     -0.27508616
C       1.80687261      0.89500149      0.03460778
H       7.79612446     -0.32976273      2.62608515
H       7.02800475      1.13073593      1.97957252
H       8.58211947      0.57805639      1.32300308
H       5.94256111     -0.96179322      1.13304162
H       7.48547148     -1.49135466      0.45885688
H       7.54217515      0.55405551     -1.00064108
H       5.98290715      1.05674372     -0.35351916
H       6.51196829     -1.55993640     -1.87792494
H       5.82503532     -0.10851578     -2.59531570
H       2.33833904     -1.18721499      0.00402842
H       1.88780424     -1.55325337     -2.41780706
H       1.63359064      0.15191967     -2.67473581
H      -0.04281594     -1.74167907     -0.96011910
H      -0.51371803     -1.03129799     -2.49560606
H       0.27228262      1.97052456     -2.06070457
H      -1.22609558      1.32172782     -2.68716076
H      -1.24497087      2.41424528     -1.29234108
H       0.59174087      1.24870976      2.38677050
H      -1.78487401      1.74110666      2.66335182
H      -1.61692652     -0.01147904      2.64742367
H      -2.60195828      1.85351676      0.43935835
H      -4.31430432      1.34287374      1.95810572
H      -3.69231384     -0.60037687      3.24295976
H      -3.56703923     -1.61372449      1.79762761
H      -5.80084214     -2.09858966      2.42202676
H      -6.06994045     -0.44911640      3.08980107
H      -4.75057993      2.16609733     -0.78236123
H      -6.27999488      1.34715524     -1.13724247
H      -6.04457795      2.12718818      0.42332185
H      -5.12905469     -0.74977145     -1.71399962
H      -4.31586971     -1.71160826     -0.50501016
H      -3.21304734      0.74619477     -1.90691490
H      -2.72745969     -0.92494686     -2.15702611
H      -1.90191051     -1.08573740      0.16606117
H       1.97644989      1.79336060     -0.57236275
H       2.39951593      1.05643001      0.94466256
