56
CCCCN(CCCC)C(=O)N(CCCC)CCCC
C       3.43706643     -3.86803447     -2.35886849
C       3.34586054     -3.16348922     -1.01457227
C       2.12120140     -2.25227508     -0.94228522
C       2.04375553     -1.53193603      0.40823583
N       0.89130552     -0.62737586      0.48544355
C       1.04167821      0.48837092      1.42795663
C       1.99817825      1.57562966      0.92912766
C       2.00021475      2.78150358      1.86897047
C       2.95180856      3.86401296      1.38522150
C      -0.35586964     -1.26965861      0.53515034
O      -0.47269342     -2.42755642      0.93414878
N      -1.44008500     -0.51485932      0.08514371
C      -2.78156397     -1.08479472      0.23347409
C      -3.63995998     -0.30542669      1.23471752
C      -3.10342379     -0.39394243      2.66483101
C      -4.01662492      0.32456924      3.64580940
C      -1.29895712      0.59757893     -0.86175540
C      -1.08495623      0.10457363     -2.29673261
C      -0.78523763      1.23444025     -3.28346270
C      -1.94292015      2.20418773     -3.46296381
H       3.52407136     -3.14428303     -3.17568929
H       4.31687935     -4.51877705     -2.38663839
H       2.55150729     -4.48581381     -2.53902172
H       4.25806579     -2.57701972     -0.85410596
H       3.29767663     -3.91431853     -0.21728945
H       1.21538864     -2.84559483     -1.11400274
H       2.16565128     -1.50791048     -1.74733183
H       2.96266079     -0.95203154      0.53783997
H       1.99242135     -2.25299513      1.23335126
H       0.06149737      0.93217437      1.63782932
H       1.39140376      0.07579779      2.38330490
H       1.70710653      1.89448415     -0.07878649
H       3.01729668      1.18195213      0.84862476
H       2.29550725      2.46664676      2.87669640
H       0.98921237      3.19919206      1.94168394
H       2.66373418      4.22524414      0.39304537
H       2.93869666      4.71477157      2.07353646
H       3.97839388      3.48792398      1.32974437
H      -2.73069762     -2.13229074      0.54960663
H      -3.26721842     -1.08259838     -0.74907455
H      -3.71148474      0.74657195      0.93500717
H      -4.65774229     -0.71355869      1.20691836
H      -3.01058831     -1.44411281      2.96412865
H      -2.10399650      0.05037063      2.72302610
H      -5.01693633     -0.12012934      3.64854238
H      -3.61207500      0.25567928      4.66034872
H      -4.11211496      1.38436065      3.38918320
H      -2.19681626      1.22002143     -0.79229607
H      -0.45916397      1.23138588     -0.57612571
H      -0.24530974     -0.60037235     -2.31960692
H      -1.96406749     -0.45628556     -2.63598168
H       0.10576603      1.78528054     -2.95998021
H      -0.54700300      0.79107457     -4.25763376
H      -2.14621098      2.76101185     -2.54362122
H      -1.70481503      2.93222858     -4.24494532
H      -2.85547392      1.67640162     -3.75787667
