30
C=C(C)C1CCC(C)(O)C(O)C1
C       2.16194372      1.54462619     -0.94599224
C       2.11229117      0.36430937     -0.30328744
C       3.08487048     -0.72081964     -0.70505452
C       1.19197735      0.03424120      0.87932915
C       0.19474886      1.13535388      1.30459032
C      -0.99245697      1.29503346      0.34559557
C      -1.72397977     -0.02876435      0.08373285
C      -2.81390761      0.15513037     -0.97654918
O      -2.37524414     -0.45218674      1.29701616
C      -0.72994159     -1.14138672     -0.32348719
O      -1.41857012     -2.39684177     -0.38015737
C       0.41116367     -1.27954384      0.68656285
H       1.53620241      2.39032166     -0.68762981
H       2.86057168      1.71265430     -1.76184893
H       2.56523903     -1.53605064     -1.21744376
H       3.59383972     -1.12308789      0.17700997
H       3.86037761     -0.34954090     -1.38412997
H       1.86665800     -0.11643021      1.73464744
H      -0.19654664      0.88087153      2.29906957
H       0.70472345      2.09779715      1.42941508
H      -0.65197857      1.71877182     -0.60506955
H      -1.68499644      2.02358431      0.78595972
H      -2.38795819      0.43202170     -1.94630518
H      -3.52129256      0.93641269     -0.67550661
H      -3.40318754     -0.75982663     -1.10288790
H      -3.01215864      0.24088831      1.54610929
H      -0.32235518     -0.94526374     -1.32165861
H      -1.97972112     -2.40802643      0.42163936
H       1.06776978     -2.10635089      0.39161875
H       0.00191816     -1.59789753      1.65580854
