45
COc1ccc2c(c1)c(CC(=O)O)c(C)n2C(=O)/C=C/c1ccccc1
C      -5.78162767      3.56181057     -0.92253532
O      -5.37162912      2.20468420     -1.03379810
C      -4.10235279      1.90658063     -0.61640241
C      -3.16800642      2.81227858     -0.13047526
C      -1.89262449      2.38830473      0.26560625
C      -1.56476561      1.02085665      0.17570370
C      -2.48788441      0.09712321     -0.31295175
C      -3.76508516      0.55189142     -0.71048102
C      -1.87904160     -1.18926900     -0.27118582
C      -2.53417784     -2.47627906     -0.68158806
C      -3.33121706     -3.11146595      0.43344393
O      -3.18917170     -2.97453974      1.63709464
O      -4.26399009     -3.96914846     -0.03708656
C      -0.60963555     -1.02815077      0.26998949
C       0.32835355     -2.10973285      0.70161828
N      -0.36910749      0.34220612      0.44903961
C       0.83163555      0.98020136      0.85063515
O       0.79922317      2.04958128      1.44766330
C       2.09290952      0.33407491      0.41380716
C       3.24816621      0.68838068      0.99716790
C       4.55655187      0.14311276      0.61343627
C       5.67258302      0.98949276      0.63540895
C       6.93975806      0.50534977      0.30142137
C       7.10552967     -0.83323355     -0.04657378
C       6.00629639     -1.68917547     -0.05571110
C       4.73833832     -1.20520751      0.27752462
H      -5.17041130      4.21167500     -1.55743766
H      -6.81507090      3.62852886     -1.27610316
H      -5.76454830      3.89614494      0.12010214
H      -3.39026585      3.87108357     -0.04446702
H      -1.17819374      3.11947909      0.63529014
H      -4.50305366     -0.15135778     -1.08671123
H      -1.78237814     -3.19925100     -1.01676561
H      -3.20533689     -2.28325296     -1.52679778
H      -4.69585520     -4.30777010      0.77589896
H       1.01174556     -2.37711930     -0.10953880
H       0.90320429     -1.82185549      1.58665156
H      -0.22523835     -3.01445098      0.97483114
H       2.05583829     -0.36677799     -0.40918536
H       3.25908529      1.43877693      1.78689422
H       5.56428517      2.03805502      0.90534975
H       7.79656931      1.17412658      0.31533480
H       8.09188044     -1.21025322     -0.30437654
H       6.13667448     -2.73646948     -0.31600554
H       3.90204117     -1.89903896      0.28329449
