26
CCCC(C)C(=O)OCC
C      -2.99254206     -1.72513754      0.26652350
C      -1.70507180     -1.04092014     -0.16631936
C      -1.74025405      0.45981044      0.13778336
C      -0.47614804      1.18634031     -0.34147933
C      -0.63091520      2.70063266     -0.21555310
C       0.72966760      0.74852328      0.46945545
O       0.89981378      0.99827378      1.65519765
O       1.58376883      0.02743093     -0.30935540
C       2.74774243     -0.44553499      0.37854035
C       3.59060895     -1.23370648     -0.60489818
H      -2.94718899     -2.79521135      0.04110218
H      -3.85636332     -1.30410307     -0.25773385
H      -3.15427588     -1.61115463      1.34317134
H      -0.86271246     -1.51420751      0.35038201
H      -1.55836975     -1.19930580     -1.24100209
H      -2.61680949      0.90001141     -0.35433247
H      -1.87373338      0.60719879      1.21720805
H      -0.30042750      0.95553948     -1.39979714
H      -0.83845122      2.99829125      0.81833213
H      -1.45196049      3.06134547     -0.84378180
H       0.28566856      3.21257859     -0.52864320
H       2.44843510     -1.09282197      1.21052444
H       3.32279465      0.40553293      0.76016106
H       4.49477761     -1.61737453     -0.12413309
H       3.88052150     -0.60586506     -1.45393538
H       3.02142463     -2.07616626     -1.01162487
