25
CC/C=C/CCOC(=O)OC
C      -4.56947768     -0.50271965     -0.49054758
C      -3.78189893      0.48471086      0.35633343
C      -2.40430519      0.70539261     -0.19902436
C      -1.27444821      0.40869826      0.46195258
C       0.10386016      0.64382368     -0.08676356
C       0.87186843     -0.66365918     -0.28105305
O       2.16558636     -0.40596000     -0.84713998
C       3.13806088     -0.08459079      0.04144391
O       3.00243130      0.00988085      1.25168953
O       4.28849753      0.11944075     -0.64723588
C       5.39871212      0.47004832      0.17585182
H      -4.07787293     -1.48113979     -0.51694947
H      -5.57344499     -0.63943449     -0.07611032
H      -4.67532020     -0.14629533     -1.52082640
H      -3.73585833      0.11821586      1.38846639
H      -4.30899035      1.44525350      0.38151247
H      -2.34891318      1.14327682     -1.19418604
H      -1.33017655     -0.01712687      1.46246065
H       0.06553854      1.18424385     -1.04093190
H       0.64931005      1.30151244      0.60018885
H       0.34108563     -1.30870156     -0.99076398
H       0.96013854     -1.23075041      0.65426836
H       6.26949362      0.61066568     -0.47056663
H       5.62116426     -0.33385863      0.88468079
H       5.20495912      1.40946472      0.70325036
