28
CC(CCC(C)O[N+](=O)O)O[N+](=O)O
C      -0.51697533      2.67866598     -1.36859039
C      -0.74018500      1.31296817     -0.72525501
C      -0.13432407      1.28024738      0.68556803
C      -0.23387153     -0.08954355      1.37374464
C       0.69188882     -1.15679091      0.77165553
C       0.46299106     -2.50408476      1.45080089
O       2.04826412     -0.78348002      1.02510562
N       2.77193136     -0.70469879     -0.19315443
O       2.31342460      0.07678093     -1.28050118
O       4.02391593     -1.33100005     -0.31921410
O      -2.15319578      1.12281329     -0.62233401
N      -2.55818350      0.01345450     -1.40933153
O      -1.94861118     -1.25657748     -1.27258006
O      -3.65069024      0.12405751     -2.28671746
H      -0.97610570      2.71028126     -2.36269701
H      -0.98714417      3.47392259     -0.77950124
H       0.54969786      2.90039655     -1.47092281
H      -0.27163599      0.55970606     -1.36686787
H      -0.67364754      1.99982210      1.31580971
H       0.91174716      1.60592583      0.65707106
H       0.03780009      0.05644771      2.42766302
H      -1.27319809     -0.43703485      1.35980107
H       0.49528952     -1.28299635     -0.29793792
H       0.66878833     -2.44433867      2.52532191
H      -0.56476339     -2.85168353      1.30823482
H       1.14517585     -3.25706985      1.04130750
H       4.24113634     -1.01510496     -1.21129602
H      -3.67951952     -0.80108609     -2.58008140
