28
Nc1ccc(S(=O)(=O)Nc2cc[nH]c(=O)n2)cc1
N       3.78968793     -0.42457090     -2.07582729
C       2.87648403      0.22590211     -1.23969968
C       1.95875438      1.13557046     -1.77547484
C       0.95944040      1.69832534     -0.97740305
C       0.85136257      1.31089462      0.35905968
S      -0.43213379      1.98862551      1.38095704
O      -1.32111023      2.76450038      0.54403161
O       0.20997227      2.56148285      2.54271546
N      -1.24448698      0.63750872      1.89657704
C      -1.90416299     -0.36784181      1.18456014
C      -2.25954379     -0.12440471     -0.22270281
C      -2.87106293     -1.15130083     -0.81329938
N      -3.11811912     -2.29264889     -0.11118737
C      -2.78523585     -2.46589771      1.21172848
O      -3.05973872     -3.52708171      1.76247289
N      -2.15133301     -1.43610267      1.85620973
C       1.73031953      0.36968398      0.89922716
C       2.72303288     -0.18582815      0.08829708
H       4.06412966      0.11665877     -2.89009457
H       4.59167730     -0.81361141     -1.58883898
H       2.01892546      1.41683923     -2.82416982
H       0.27382438      2.42368729     -1.40931308
H      -1.07152206      0.42725961      2.87766595
H      -2.07017708      0.80631338     -0.73118799
H      -3.20072442     -1.12419731     -1.84662264
H      -3.58697209     -3.08194688     -0.53896168
H       1.64629182      0.05614954      1.93691739
H       3.38242044     -0.94396881      0.50436353
