14
CC(C)(C)Cl
C       1.08669804     -0.96662222     -0.04700948
C      -0.00890716      0.05181941     -0.36719898
C       0.29513276      1.39188254      0.30502568
C      -1.37357615     -0.47328452      0.08228944
Cl     -0.05207043      0.30293312     -2.14662172
H       1.14790526     -1.15020194      1.03171019
H       2.07028826     -0.61424291     -0.37815758
H       0.89413204     -1.92886870     -0.53514870
H      -0.47141769      2.13984798      0.07215646
H       1.26265761      1.79212904     -0.01897789
H       0.33084301      1.28427330      1.39508483
H      -2.17399340      0.23682689     -0.15510005
H      -1.39161735     -0.64097379      1.16517382
H      -1.61607479     -1.42551821     -0.40322603
