11
ClCC(Br)CBr
Cl      1.59722767     -1.60254654     -0.67806267
C       1.25470370     -0.19346901      0.36063356
C       0.01984594      0.60454163     -0.06052197
Br      0.39535736      1.55042948     -1.74891953
C      -1.26765473     -0.18491141     -0.23425208
Br     -1.90796621     -0.84963359      1.48390786
H       2.15105123      0.43563650      0.35062808
H       1.14002709     -0.57499561      1.37948929
H      -0.13156902      1.41935586      0.65729371
H      -2.07962386      0.44439986     -0.61327205
H      -1.17139917     -1.04880717     -0.89692420
