19
C=CC(O)C(C)C
C       2.54460280     -0.98746618      0.03095544
C       1.59887454     -0.25098234     -0.56745757
C       0.55617887      0.55218586      0.15704804
O       0.77132889      1.91350084     -0.20726694
C      -0.88847170      0.15104826     -0.21126680
C      -1.90437323      1.05927112      0.49291510
C      -1.18702174     -1.31080936      0.13372803
H       3.26843916     -1.54338728     -0.55763786
H       2.61803569     -1.05751233      1.11185836
H       1.56723286     -0.21372260     -1.65479476
H       0.69251888      0.47890152      1.24308253
H       1.70601518      2.10768731     -0.02140026
H      -1.03262082      0.28906068     -1.29149246
H      -2.92849086      0.77369672      0.22929717
H      -1.80495079      0.99428725      1.58180388
H      -1.77141257      2.10597858      0.20101737
H      -2.22740472     -1.56035903     -0.10145653
H      -0.55255128     -1.99471650     -0.43864565
H      -1.02592915     -1.50666253      1.19932396
