28
CC(C)(C)OOC(=O)c1ccccc1
C      -2.09527624     -1.34778085      0.35969310
C      -2.49601900      0.04613981     -0.13440406
C      -3.81657771     -0.05527893     -0.90697211
C      -2.67013964      1.02049234      1.03558932
O      -1.53668663      0.56003705     -1.07325991
O      -0.25385117      0.69790965     -0.38197132
C       0.65019104     -0.08793045     -1.03343159
O       0.43417778     -0.82067446     -1.98740479
C       1.98900610      0.04229247     -0.39443689
C       3.03499215     -0.74861809     -0.89151096
C       4.31012306     -0.66844860     -0.32839930
C       4.54911786      0.20209824      0.73354193
C       3.51613618      0.99395886      1.23381001
C       2.23828469      0.91695205      0.67338632
H      -1.17589605     -1.31375540      0.95413538
H      -1.90058371     -2.01939920     -0.48386544
H      -2.87842226     -1.79138172      0.98371931
H      -3.71083560     -0.71865985     -1.77329252
H      -4.11373868      0.92329946     -1.30172018
H      -4.62791896     -0.43509143     -0.27724927
H      -3.47801810      0.70420963      1.70388739
H      -2.89309308      2.02975257      0.67149985
H      -1.75382714      1.09860170      1.63100017
H       2.86022161     -1.43139280     -1.72157194
H       5.11585007     -1.28482342     -0.71992593
H       5.54284242      0.26470948      1.17091156
H       3.70660422      1.67399732      2.06088620
H       1.45333680      1.54878456      1.08130831
