9
O=C([O-])CS.[Na+]
O      -1.99279107      0.47798161      0.18875189
C      -0.74811876      0.51924295      0.41033768
O      -0.06956530      1.41361401      0.99862354
C       0.04125463     -0.71055450     -0.06487632
S       1.30407352     -0.10043976     -1.22871352
Na      0.00000000      0.00000000      0.00000000
H       0.52962682     -1.18582032      0.79068076
H      -0.59761140     -1.44324169     -0.56519110
H       1.53313157      1.02921770     -0.52961293
