46
CCOC(=O)C(C)OC(=O)c1cc(Oc2ccc(C(F)(F)F)cc2Cl)ccc1[N+](=O)[O-]
C       7.53530219      1.11245957      1.77586867
C       6.02105876      1.18642674      1.79348756
O       5.51839133      0.28983851      0.79579466
C       4.15717562      0.25717269      0.70785140
O       3.39258891      0.89836878      1.41991573
C       3.72044188     -0.70333686     -0.40116563
C       3.99346274     -2.13961606      0.02318477
O       2.30906779     -0.59548828     -0.64443432
C       1.95032530      0.52487745     -1.31157189
O       2.68513552      1.37324888     -1.78341676
C       0.48462235      0.58281125     -1.40187154
C      -0.27722899      0.46728601     -0.23152059
C      -1.66942921      0.59551659     -0.28400362
O      -2.31810752      0.47313966      0.92681636
C      -3.63167986      0.06952715      0.91010784
C      -4.59752810      1.02929252      1.22433524
C      -5.94806982      0.67570870      1.25852800
C      -6.34496280     -0.64631105      1.00228978
C      -7.80236817     -1.04185989      1.02381168
F      -8.60919920     -0.10504955      1.59374972
F      -8.29514834     -1.25186365     -0.22704622
F      -8.02135374     -2.19424569      1.71384114
C      -5.36192280     -1.60782594      0.70899746
C      -4.00976012     -1.25607521      0.67399934
Cl     -2.85110851     -2.49335348      0.35484885
C      -2.30356620      0.87547087     -1.50117748
C      -1.55017519      0.99405579     -2.67260641
C      -0.15866228      0.84119256     -2.61212836
N       0.59196648      0.89426734     -3.85299990
O       0.38208645      1.86121228     -4.59744859
O       1.33132156     -0.06646082     -4.10514445
H       7.92349858      1.38421951      0.78882089
H       7.96757403      1.78294035      2.52353311
H       7.87326830      0.09068351      1.97941102
H       5.69775800      2.20895793      1.56777327
H       5.64773394      0.89005492      2.78021529
H       4.27449794     -0.47714960     -1.32063981
H       3.64643354     -2.83954293     -0.74449019
H       3.45310212     -2.38369829      0.94499587
H       5.05980633     -2.31265644      0.19820678
H       0.21050937      0.28696829      0.72574760
H      -4.29731432      2.05255637      1.43957989
H      -6.69126156      1.43735680      1.49483562
H      -5.65710273     -2.63905460      0.51828269
H      -3.38091639      1.00805656     -1.55919905
H      -2.05026317      1.19694384     -3.61796539
