27
CCCCOCCC(=O)OC
C      -4.50096838     -0.66476261     -1.28749115
C      -3.16004783     -0.02787906     -0.95766970
C      -2.86238345     -0.09666209      0.54194576
C      -1.53603514      0.56855096      0.89758453
O      -0.46861447     -0.14343803      0.27328150
C       0.80061082      0.44247137      0.56890165
C       1.87552858     -0.37107669     -0.13040967
C       3.24079346      0.19665583      0.14098972
O       3.47439745      1.17983074      0.83001020
O       4.18307488     -0.55228740     -0.49895211
C       5.52193502     -0.09451888     -0.30455877
H      -4.69498583     -0.60413928     -2.36295009
H      -4.51536216     -1.72052538     -0.99855398
H      -5.31682569     -0.15416651     -0.76595931
H      -2.37377710     -0.54003143     -1.52388856
H      -3.16835930      1.01768432     -1.28690238
H      -2.83336982     -1.14897861      0.84991591
H      -3.66887603      0.39158815      1.10117312
H      -1.53247549      1.61239268      0.56311498
H      -1.39819316      0.54560535      1.98458281
H       0.96099286      0.43896094      1.65370209
H       0.81478070      1.48068265      0.21610020
H       1.84111593     -1.40877157      0.21966767
H       1.69454725     -0.37238081     -1.21106849
H       5.79035590     -0.13424120      0.75576843
H       6.19115303     -0.76047261     -0.85626596
H       5.64098795      0.91990918     -0.69785719
