40
CC1CCC(C(C)C)C2(C1)OCC(CO)O2
C       3.62360694      0.65070671      1.10468541
C       2.50494165      0.38790252      0.09762152
C       2.41176410     -1.10874003     -0.22964733
C       1.22513965     -1.41966385     -1.14244511
C      -0.11951936     -0.93916658     -0.54102537
C      -0.55519839     -1.78031481      0.71180161
C      -0.52996897     -3.29170125      0.42876738
C      -1.96038717     -1.42804533      1.22051260
C      -0.00764930      0.59787727     -0.30996800
C       1.16808113      0.94097532      0.61660582
O       0.23094515      1.24360028     -1.58357849
C      -0.99630532      1.89056447     -1.91295433
C      -1.54020543      2.27153197     -0.56517847
C      -3.04153357      2.50932689     -0.55154342
O      -3.46432544      2.83410092      0.77236940
O      -1.21691924      1.13328469      0.24623210
H       4.58453230      0.29374846      0.71944831
H       3.72061881      1.72272168      1.30610127
H       3.43042654      0.14334100      2.05595789
H       2.76185075      0.92140231     -0.82729616
H       3.33620796     -1.43338233     -0.72280789
H       2.33280046     -1.69375898      0.69431954
H       1.20198897     -2.48889542     -1.37301926
H       1.38745648     -0.92841863     -2.11078229
H      -0.88528142     -1.10398200     -1.31266857
H       0.14334206     -1.59790144      1.53660963
H       0.49082347     -3.65720406      0.28463740
H      -0.94090637     -3.85804797      1.27205740
H      -1.11869339     -3.53750934     -0.46130229
H      -1.96519909     -0.47838600      1.76126346
H      -2.32425726     -2.17712231      1.93291987
H      -2.68052580     -1.37178275      0.39769289
H       0.96459017      0.57275490      1.62987476
H       1.25069759      2.03207000      0.71048793
H      -0.81455408      2.74816313     -2.56573003
H      -1.63245836      1.16752517     -2.43546075
H      -1.00399742      3.12772366     -0.13829650
H      -3.58973957      1.61172573     -0.85597419
H      -3.31875364      3.33604110     -1.21184518
H      -3.06343559      2.15693487      1.35155744
