26
C=CCOC(=O)COc1ccccc1
C      -5.68177507     -0.12018975     -0.89360632
C      -4.67833444      0.61473742     -0.39596731
C      -3.66202443      0.11559580      0.58453219
O      -2.37599808      0.28758312     -0.01635185
C      -1.34220676     -0.13274735      0.77213366
O      -1.47154615     -0.60377771      1.89369630
C      -0.03132695      0.08229218      0.03014012
O       1.07063350     -0.33703885      0.82448808
C       2.31739750     -0.20018815      0.28031605
C       2.61232250      0.31046898     -0.98486559
C       3.94055996      0.39350000     -1.41551494
C       4.97668688     -0.03228149     -0.58596360
C       4.68734617     -0.54250895      0.67689506
C       3.36177196     -0.62508497      1.10592918
H      -5.82487196     -1.15912669     -0.61209264
H      -6.38512814      0.30788475     -1.60160937
H      -4.57821182      1.65150482     -0.70853519
H      -3.72622100      0.71210678      1.50175189
H      -3.82519038     -0.94251104      0.82080041
H       0.05046312      1.15390560     -0.18562042
H      -0.07572218     -0.51124486     -0.89035429
H       1.83789219      0.65265683     -1.66259014
H       4.16662086      0.79165188     -2.40159096
H       6.00774741      0.03342108     -0.92341884
H       5.49004319     -0.87641958      1.32883903
H       3.13907211     -1.02418983      2.09284110
