73
CCCCCCCCCCCCCCCCOC(=O)Oc1c(Cl)cc(C(=O)OCC)cc1Cl
C      -8.12366111      0.67089948      4.81598145
C      -7.67827397      1.77048705      3.86401107
C      -6.72590452      1.28170191      2.77076871
C      -7.38056990      0.31212216      1.78399224
C      -6.41088164     -0.07292234      0.66340908
C      -7.06062691     -1.04342630     -0.32603782
C      -6.09375994     -1.54488212     -1.40373007
C      -5.63466514     -0.44396699     -2.36307652
C      -4.80181364     -0.97085691     -3.53702896
C      -3.50859265     -1.70195432     -3.16163238
C      -2.54094742     -0.84509418     -2.34295836
C      -1.21814127     -1.57612229     -2.09743275
C      -0.27221696     -0.72750046     -1.24548115
C       1.03330714     -1.44370973     -0.89126600
C       1.92228931     -1.82503322     -2.08007365
C       2.33701907     -0.65351931     -2.97098244
O       2.85828737      0.43983724     -2.20538020
C       4.15175843      0.32041469     -1.81011850
O       4.89400876     -0.61825491     -2.06677323
O       4.46916394      1.43589341     -1.05444121
C       5.76729047      1.35434927     -0.54370807
C       6.83284564      1.91430641     -1.25368333
Cl      6.58673457      2.70293237     -2.76768614
C       8.12670258      1.84314481     -0.73613372
C       8.35818437      1.22153747      0.50009042
C       9.75745392      1.16655440      1.00272747
O      10.71016521      1.61558101      0.38614275
O       9.80473311      0.55943724      2.21314722
C      11.12271541      0.45176432      2.76664494
C      11.01381636     -0.23521312      4.11430067
C       7.28275600      0.67945846      1.21883466
C       5.98953918      0.75153630      0.69862552
Cl      4.68982932      0.08725449      1.61987335
H      -8.71961610      1.09721742      5.62932668
H      -8.74258712     -0.07415820      4.30747436
H      -7.26194162      0.16194125      5.25946417
H      -8.55878011      2.24052804      3.41040522
H      -7.16827476      2.54776782      4.44595619
H      -5.85094143      0.80663103      3.23122782
H      -6.35815295      2.15681535      2.22104518
H      -7.70333659     -0.59484609      2.30661984
H      -8.27498950      0.77626718      1.35187190
H      -6.08837334      0.83518749      0.14237720
H      -5.51570428     -0.53468689      1.09685928
H      -7.92751604     -0.56684850     -0.79952070
H      -7.44011021     -1.91394081      0.22349034
H      -6.59821965     -2.33133900     -1.97814211
H      -5.22925983     -2.01156514     -0.91822042
H      -6.51645106      0.06404291     -2.77314389
H      -5.06388247      0.31946372     -1.82497531
H      -4.55216074     -0.12477828     -4.18940140
H      -5.42155934     -1.64872859     -4.13706863
H      -3.74370403     -2.62252705     -2.61486766
H      -3.01446294     -2.01477760     -4.09012303
H      -2.34591263      0.09664216     -2.87021087
H      -2.99242828     -0.59061364     -1.37735556
H      -0.75143367     -1.80871640     -3.06131834
H      -1.41325062     -2.52869099     -1.59008709
H      -0.05806036      0.21875014     -1.75528467
H      -0.77755917     -0.46395651     -0.30777869
H       1.60422205     -0.80400284     -0.20695156
H       0.79890602     -2.35531894     -0.32749683
H       1.43051391     -2.58778609     -2.69398797
H       2.82433500     -2.29672558     -1.67173988
H       1.46976642     -0.27320040     -3.52100097
H       3.06237260     -0.97594361     -3.72792628
H       8.95837214      2.27180359     -1.29390666
H      11.55456947      1.45135918      2.89354782
H      11.75573146     -0.14287815      2.09771722
H      11.99850532     -0.34346540      4.57772196
H      10.56290505     -1.22722002      4.00514175
H      10.36635142      0.33664250      4.78756332
H       7.44357292      0.19980806      2.18177321
