36
NCCCCCCCCCCN
N       6.24485053      0.12316700     -1.06104061
C       4.87597710     -0.29554300     -0.77834195
C       4.43528115      0.22967706      0.58761911
C       3.03524235     -0.24089950      0.99439393
C       1.92252843      0.32122232      0.10682864
C       0.54149384     -0.08638182      0.62548902
C      -0.57293889      0.47129915     -0.26169979
C      -1.95400522      0.06436564      0.25739620
C      -3.06644611      0.62052557     -0.63424645
C      -4.47400453      0.33870265     -0.09931965
C      -4.83322022     -1.14753173     -0.09729021
N      -6.21324301     -1.35003019      0.33358480
H       6.54308061     -0.27604110     -1.95010795
H       6.87294342     -0.25583856     -0.35340075
H       4.22615468      0.09120791     -1.56893337
H       4.81904619     -1.38920690     -0.80086844
H       4.46945429      1.32647493      0.59653991
H       5.14299127     -0.11348028      1.35348661
H       2.85822685      0.07221363      2.03093705
H       2.99870355     -1.33707973      0.98550761
H       1.99431445      1.41505479      0.07533439
H       2.04043062     -0.04271774     -0.91984591
H       0.41118327      0.27931393      1.65128695
H       0.47090784     -1.18037184      0.66046911
H      -0.50087654      1.56516534     -0.29689976
H      -0.44408086      0.10527488     -1.28758637
H      -2.08431760      0.43370336      1.28171188
H      -2.01364167     -1.02898625      0.29524449
H      -2.94580787      1.70764470     -0.72029872
H      -2.96930816      0.21132927     -1.64723541
H      -4.56899332      0.74915130      0.91386931
H      -5.19041087      0.88315236     -0.72804683
H      -4.17722926     -1.70521837      0.57784034
H      -4.70896429     -1.56987549     -1.10010067
H      -6.34322416     -0.94739339      1.26115779
H      -6.84209786     -0.83701107     -0.28343431
