57
CCOP(=O)(Cc1cc(C(C)(C)C)c(O)c(C(C)(C)C)c1)OCC
C       3.85858806     -1.98698205     -0.25036130
C       3.87464271     -0.69958319     -1.04827845
O       3.19871463      0.30063857     -0.30689015
P       2.80697183      1.66405696     -1.07805044
O       3.93449302      2.24896668     -1.87605395
C       1.32646739      1.28858747     -2.02507671
C       0.20305408      0.57435841     -1.30958356
C      -0.62792884      1.27773334     -0.43142672
C      -1.65913081      0.65078331      0.29236094
C      -2.49741102      1.47853825      1.30104490
C      -1.79182137      2.79052845      1.74706507
C      -2.77993988      0.71035246      2.61491580
C      -3.82851345      1.89013249      0.63927029
C      -1.84830499     -0.73130544      0.04114845
O      -2.89695649     -1.39358225      0.61854698
C      -1.00932672     -1.49412857     -0.81140951
C      -1.19650325     -3.01823214     -1.01948509
C      -0.12562253     -3.65781070     -1.94365410
C      -2.56134858     -3.30945048     -1.68163701
C      -1.09063523     -3.76814148      0.32816837
C       0.01414637     -0.80014736     -1.47772538
O       2.29663621      2.61906532      0.12069074
C       3.27836048      3.09060103      1.02758669
C       2.58255307      3.84095490      2.14372617
H       4.37041931     -2.78812887     -0.79086876
H       4.34788806     -1.84537112      0.71917565
H       2.82942214     -2.29966084     -0.04456017
H       3.38105399     -0.85083038     -2.01325505
H       4.90465694     -0.37509457     -1.22629942
H       1.62889908      0.69578559     -2.89669829
H       0.93613207      2.22725940     -2.43704497
H      -0.43482537      2.34120327     -0.31525738
H      -2.36685918      3.30705608      2.52559376
H      -0.79405353      2.58910429      2.15518360
H      -1.69087916      3.50647008      0.92339254
H      -3.20107943      1.37483282      3.38027644
H      -1.86053277      0.27596367      3.02455780
H      -3.51155507     -0.09232807      2.49533942
H      -4.43295456      2.50409560      1.31780829
H      -4.43974215      1.02918181      0.35331718
H      -3.65259800      2.47682540     -0.27071536
H      -3.68017238     -0.83179502      0.52206582
H      -0.15775314     -3.23513921     -2.95468892
H      -0.28635563     -4.73780110     -2.04770002
H       0.88639898     -3.52273710     -1.54399789
H      -2.66578783     -2.75829670     -2.62402887
H      -2.67004586     -4.37743256     -1.90735679
H      -3.41047318     -3.03845224     -1.04819623
H      -1.12846926     -4.85390147      0.17933222
H      -0.14570087     -3.53519221      0.83325404
H      -1.90145362     -3.52434345      1.01954686
H       0.68899272     -1.32011519     -2.15078583
H       3.84284287      2.24569912      1.43518866
H       3.96764834      3.75551485      0.49796274
H       3.30710833      4.22748616      2.86545203
H       1.87695638      3.18596896      2.66622362
H       2.00168707      4.67823900      1.74289128
