62
COc1cccc(OC)c1C(CNS(=O)(=O)c1ccc(C(F)(F)F)cc1)N1CCCCCC1
C      -0.81462879     -1.16015330     -4.10841721
O      -0.69039211     -0.99007151     -2.70290551
C      -1.59628642     -1.63432337     -1.89854243
C      -2.50607276     -2.59075447     -2.36544240
C      -3.37309202     -3.23526612     -1.48375390
C      -3.34064481     -2.93073836     -0.12727200
C      -2.45148936     -1.96530885      0.35289869
O      -2.36678914     -1.69363170      1.69529080
C      -3.62784231     -1.44953535      2.31212872
C      -1.55787041     -1.30838349     -0.52175099
C      -0.54812547     -0.26604527      0.00680362
C       0.54402488     -1.01716199      0.84929458
N       1.28139849     -1.98487508      0.00747587
S       2.76953816     -2.54226782      0.51880306
O       2.75206520     -2.63436329      1.96167770
O       3.09970780     -3.67563345     -0.31695586
C       3.84139027     -1.20868955      0.04413382
C       4.45139983     -0.42115286      1.02325525
C       5.29930623      0.61996939      0.63867653
C       5.53665960      0.88476898     -0.72272068
C       6.46894256      2.00515125     -1.12063825
F       7.77541050      1.69825240     -0.89101411
F       6.38767648      2.33901534     -2.43972367
F       6.22829583      3.15584673     -0.43188171
C       4.91938975      0.07694687     -1.69350100
C       4.07137785     -0.96656519     -1.31413084
N      -1.25159667      0.87968623      0.67129824
C      -1.99014767      1.70450102     -0.29559228
C      -3.35640213      2.10589444      0.26721329
C      -3.34083273      3.18844686      1.34273095
C      -2.40406524      2.92558822      2.51862198
C      -0.93713347      2.98014242      2.10508900
C      -0.38266271      1.66004676      1.55500058
H      -1.80754734     -0.85957561     -4.45888606
H      -0.58387630     -2.18937912     -4.40079563
H      -0.08093380     -0.50591853     -4.58891720
H      -2.55459733     -2.87206617     -3.41252959
H      -4.06419899     -3.98791250     -1.85406281
H      -3.99738638     -3.46934700      0.54980758
H      -3.45309177     -0.82582690      3.19384467
H      -4.07392876     -2.39191321      2.64551966
H      -4.31803791     -0.91218160      1.65306104
H       0.00475755      0.17441580     -0.83371120
H       1.26975836     -0.29547706      1.23636158
H       0.10762178     -1.54563723      1.70185800
H       0.73418144     -2.68131796     -0.49891145
H       4.27640356     -0.60810828      2.08068398
H       5.77092769      1.23473876      1.40455320
H       5.09790516      0.25732511     -2.75301521
H       3.59693231     -1.58750042     -2.07264809
H      -1.41183457      2.57924417     -0.61982081
H      -2.19943755      1.14532870     -1.21580539
H      -3.97969196      2.46343085     -0.56321198
H      -3.86651084      1.21666050      0.65916590
H      -4.36147098      3.30462638      1.72855295
H      -3.08062349      4.14911207      0.87939683
H      -2.64419216      1.97367162      3.00751998
H      -2.57819279      3.71447034      3.26227498
H      -0.77985720      3.78513768      1.37635285
H      -0.33700349      3.25142828      2.98331123
H       0.56270206      1.89562197      1.04898879
H      -0.13928551      1.03761347      2.42491234
