23
Clc1ccc(Oc2ccc(Cl)c(Cl)c2)c(Cl)c1
Cl      4.74663783     -1.20841723     -2.13013280
C       3.41929140     -0.81387987     -1.10910295
C       2.69664983      0.35713175     -1.33960800
C       1.61933625      0.68204849     -0.51351339
C       1.26067192     -0.17738868      0.53153985
O       0.22615838      0.14850299      1.38027012
C      -1.01394519      0.33796569      0.81248768
C      -1.77449717      1.39406419      1.31479894
C      -3.05421134      1.63344493      0.81089074
C      -3.58102877      0.80715995     -0.18658179
Cl     -5.16832786      1.16237612     -0.76821089
C      -2.82493469     -0.26669720     -0.67284522
Cl     -3.41712119     -1.33636351     -1.89440210
C      -1.54319058     -0.50624624     -0.16705556
C       2.00427258     -1.33957347      0.76901935
Cl      1.60669584     -2.40774246      2.06460339
C       3.08119803     -1.66361129     -0.05716660
H       2.97128012      1.02218244     -2.15501947
H       1.07052025      1.60483662     -0.68362260
H      -1.37066455      2.03252332      2.09723926
H      -3.63749147      2.46333322      1.20323441
H      -0.97146836     -1.35573457     -0.53049226
H       3.65416873     -2.56991518      0.11923671
