34
N=C(N)NN=C1C=CC(=NNC(=N)N)c2ccccc21
N       4.15789800      1.16606641     -1.16827112
C       4.36833401      0.90862857      0.07509106
N       5.30500535      1.60113963      0.75730859
N       3.70043076     -0.02145018      0.82580353
N       2.82218076     -0.91993212      0.27539761
C       1.57469543     -0.56159841      0.17183046
C       1.01493286      0.74291567      0.61281345
C      -0.28590364      1.03194597      0.54341953
C      -1.29365099      0.06949253      0.02661729
N      -2.57844942      0.26710337     -0.00399371
N      -3.07419676      1.41645189      0.54851831
C      -4.38065359      1.77670560      0.39417311
N      -5.22564487      1.18053671     -0.37295980
N      -4.75796504      2.85553038      1.11353985
C      -0.75696205     -1.21223022     -0.50999073
C      -1.64041298     -2.13877743     -1.09027949
C      -1.16790767     -3.35081224     -1.59582400
C       0.18887801     -3.64976977     -1.52530940
C       1.07307910     -2.73694340     -0.94856800
C       0.60588984     -1.51373375     -0.43737892
H       3.44083629      0.49103965     -1.46457739
H       5.65893891      2.35091299      0.16865150
H       4.97662739      1.96776179      1.64144737
H       4.35843844     -0.46191450      1.46912895
H       1.70929029      1.48183899      0.99436469
H      -0.62967574      2.00989974      0.85550800
H      -2.73355788      1.65913943      1.47576575
H      -4.67729363      0.41000840     -0.78547447
H      -5.71413632      3.08725332      0.85336046
H      -4.16458260      3.65859232      0.94539654
H      -2.70574558     -1.92456100     -1.15453442
H      -1.86090471     -4.05924066     -2.04407276
H       0.56115349     -4.59278597     -1.91905949
H       2.13103457     -2.98921372     -0.90401759
