37
COc1ccc(NC(=O)c2cc3ccccc3cc2O)cc1
C       7.05738156     -0.64160690      0.76350204
O       6.14202633     -1.33595252     -0.07491020
C       4.83345526     -0.94593664     -0.01432028
C       3.97509804     -1.64250874     -0.86477223
C       2.60972473     -1.34288037     -0.90197256
C       2.08044752     -0.33588265     -0.08798229
N       0.69266782     -0.09696607     -0.17600231
C      -0.02529483      0.90461895      0.45073389
O       0.43182400      1.82774379      1.11936499
C      -1.49949283      0.88693174      0.22714926
C      -2.19293173     -0.31551796      0.02109669
C      -3.58006588     -0.31591022     -0.21077651
C      -4.28480298     -1.51148913     -0.42682937
C      -5.66105206     -1.49679842     -0.65988383
C      -6.35113020     -0.28855602     -0.67809772
C      -5.66759201      0.90835719     -0.46056767
C      -4.28392816      0.91125550     -0.22437821
C      -3.58843694      2.10626883      0.00957503
C      -2.21535096      2.09066738      0.24631368
O      -1.62980053      3.30490440      0.49291727
C       2.94025112      0.35530159      0.76603550
C       4.30968602      0.05395359      0.80233357
H       7.09754661      0.42262535      0.50867300
H       8.05280479     -1.06253029      0.59202607
H       6.81218490     -0.78692785      1.82077512
H       4.37300992     -2.42565306     -1.50558341
H       1.97571363     -1.90800646     -1.57945634
H       0.19663605     -0.67688290     -0.83980901
H      -1.66916489     -1.26685093      0.06704977
H      -3.76799404     -2.46867224     -0.41571023
H      -6.19444114     -2.42940084     -0.82599615
H      -7.42309258     -0.27591256     -0.85840719
H      -6.22535671      1.84262338     -0.47364219
H      -4.11196397      3.05966256      0.01942156
H      -0.72080403      3.13667179      0.83056623
H       2.57910740      1.13646238      1.42760973
H       4.93313080      0.62279434      1.48423595
