13
CC(C#N)NC=O
C       1.19357054     -0.84086237      0.04033939
C       0.30201167      0.34061697      0.41923669
C       1.07282978      1.60002416      0.35019844
N       1.66651014      2.59448798      0.26486770
N      -0.86507437      0.40526710     -0.45422470
C      -1.95239287     -0.39977106     -0.25341812
O      -2.07127994     -1.20414270      0.65811330
H       1.55275562     -0.75386255     -0.99202323
H       2.07021677     -0.89847126      0.69522025
H       0.65058601     -1.78863654      0.12051262
H      -0.05232950      0.19475815      1.44679790
H      -0.83605733      0.99598089     -1.27696361
H      -2.73134653     -0.24538876     -1.01865663
