8
CC(F)(F)F
C      -0.78831631     -0.01691750      0.02227113
C       0.71508150      0.01534588     -0.02020211
F       1.23669725     -0.16887862      1.21080578
F       1.15933012      1.20115075     -0.48701268
F       1.19604914     -0.95518507     -0.82527468
H      -1.17188326      0.77171028      0.67612007
H      -1.20490630      0.13290218     -0.97802012
H      -1.14205213     -0.98012790      0.40131261
