24
O=C(CO)C(O)C(O)C(O)CO
O      -3.04564213      0.14552531      0.62216039
C      -2.13457614      0.55905717     -0.10907271
C      -2.43040976      1.06685073     -1.51330772
O      -3.81123820      1.38542585     -1.65508287
C      -0.69537200      0.62817196      0.41254411
O      -0.68545003      0.11739244      1.75106314
C       0.27202471     -0.17324494     -0.46300653
O       0.33305183      0.42178009     -1.77318657
C       1.71812480     -0.22790166      0.06578254
O       2.51977234     -0.81881410     -0.98858186
C       1.93358096     -1.05101395      1.33723162
O       3.34767072     -1.22288804      1.51213581
H      -1.85629225      1.97430185     -1.71337034
H      -2.18348116      0.28948441     -2.24078434
H      -4.29938354      0.72476058     -1.12650301
H      -0.41455695      1.68663091      0.45210098
H      -1.60602440      0.19141606      2.08302955
H      -0.09891864     -1.19586560     -0.60525555
H       1.14894480      0.04314432     -2.17257956
H       2.11826025      0.78451513      0.19705874
H       3.36540682     -1.04338465     -0.54163059
H       1.54634884     -0.55177689      2.22660386
H       1.49206177     -2.04747679      1.24394237
H       3.46609737     -1.68609021      2.36018027
