8
FCCCl
F       1.19486544     -1.27283205      0.43589781
C       0.77612237     -0.04807193      0.01258345
C      -0.73727006     -0.02570203      0.01284402
Cl     -1.35091313      1.54971116     -0.53128539
H       1.18376569      0.11614974     -0.98935553
H       1.19269458      0.70065771      0.69294677
H      -1.12520481     -0.22016248      1.01722840
H      -1.13406010     -0.79975013     -0.65085953
