52
CCN(CC)c1ccc2cc(-c3n(C)c4ccccc4[n+]3C)c(=O)oc2c1.[Cl-]
C       1.26692040      5.71408216     -2.06765383
C       1.91237988      5.36103338     -0.73525209
N       0.90746898      4.88567315      0.22908603
C       0.32302344      5.92504213      1.09110006
C       1.10022846      6.05487165      2.39324742
C       0.53382970      3.55017796      0.31498902
C      -0.33231631      3.07479251      1.32060073
C      -0.71979233      1.72738583      1.42302040
C      -0.24597768      0.79897035      0.50721495
C      -0.60518587     -0.60716652      0.56134719
C      -0.11835706     -1.45349915     -0.35700364
C      -0.45714845     -2.99225784     -0.33817460
N      -1.11658999     -3.69177428     -1.28544457
C      -1.57026434     -3.15465871     -2.56634693
C      -1.25315455     -5.01699983     -0.89024211
C      -1.83079767     -6.11427067     -1.52587346
C      -1.80508240     -7.32252576     -0.81696801
C      -1.22684358     -7.41633537      0.46264327
C      -0.64362887     -6.30738993      1.09064021
C      -0.67152787     -5.11114833      0.37584223
N      -0.18180455     -3.84381025      0.67587208
C       0.57092327     -3.49401722      1.87682865
C       0.77613472     -0.99447246     -1.43488110
O       1.18791791     -1.78290059     -2.27832896
O       1.11389279      0.34888818     -1.45483144
C       0.60587864      1.24301779     -0.49181251
C       0.99322300      2.58263849     -0.59362436
Cl      0.00000000      0.00000000      0.00000000
H       0.77832086      4.84817846     -2.52436516
H       0.50893815      6.49445599     -1.94295752
H       2.02293754      6.08470305     -2.76690780
H       2.40674448      6.25831987     -0.34129256
H       2.72101582      4.63423473     -0.87110563
H       0.35057362      6.89267719      0.57374052
H      -0.73996595      5.74285236      1.28441580
H       0.66645442      6.84448481      3.01471822
H       2.14763861      6.31079585      2.20212831
H       1.08668739      5.12449556      2.96884078
H      -0.72953179      3.75001419      2.07403775
H      -1.39040818      1.43870033      2.22876913
H      -1.27266427     -0.93930319      1.34993685
H      -1.73237153     -2.07693696     -2.49389737
H      -0.81721621     -3.36980577     -3.32866731
H      -2.52014656     -3.61819678     -2.84684837
H      -2.27387536     -6.04069000     -2.51116631
H      -2.24315236     -8.21442275     -1.26697632
H      -1.23081168     -8.37910957      0.97549297
H      -0.19659484     -6.38216208      2.07391372
H      -0.11712931     -3.06957802      2.61246842
H       1.34931455     -2.76725893      1.63025973
H       1.05678604     -4.37793302      2.29717911
H       1.65510707      2.84813796     -1.41147471
