34
c1ccc(P(c2ccccc2)c2ccccc2)cc1
C       4.06661776     -0.39571756      1.35028130
C       3.01275038      0.35476399      1.86366087
C       1.86271150      0.57059386      1.09706829
C       1.74553594      0.03820249     -0.19539302
P       0.29161597      0.26463408     -1.27129403
C      -0.68117707      1.55982046     -0.43530233
C      -0.32570573      2.90136173     -0.66564870
C      -1.02477269      3.94974250     -0.06080974
C      -2.09539833      3.67577170      0.78434645
C      -2.46567130      2.35550687      1.02354055
C      -1.76522872      1.30680996      0.41818924
C      -0.68526856     -1.25400171     -1.02196826
C      -0.44339890     -2.19139858     -0.00687584
C      -1.23691360     -3.33636553      0.12048620
C      -2.28507617     -3.56487167     -0.76639310
C      -2.54122086     -2.64948977     -1.78229131
C      -1.74760897     -1.50593719     -1.90916204
C       2.82347819     -0.71457315     -0.69591702
C       3.97271774     -0.93106926      0.06959337
H       4.95946043     -0.56167092      1.94703642
H       3.08150477      0.77615578      2.86334844
H       1.06210203      1.15853460      1.53844745
H       0.50879449      3.14465206     -1.32140674
H      -0.73090040      4.97835772     -0.25249625
H      -2.64119423      4.48907642      1.25494852
H      -3.30210512      2.13604887      1.68224109
H      -2.08504912      0.29108413      0.63608620
H       0.36149144     -2.05003702      0.70980722
H      -1.03189503     -4.04898354      0.91535370
H      -2.89991824     -4.45524798     -0.66627808
H      -3.35755142     -2.82220119     -2.47865805
H      -1.97137499     -0.80584071     -2.71252409
H       2.77641615     -1.14637382     -1.69438217
H       4.79223264     -1.51733764     -0.33763454
