22
c1ccc2c(c1)CCCC2
C       2.85709994      0.35830890     -0.22823260
C       2.69933026     -1.02054930     -0.12485687
C       1.42316159     -1.56751277      0.00542825
C       0.29044902     -0.74022187      0.03928662
C       0.44842284      0.65215835     -0.08623846
C       1.73844186      1.19069756     -0.20633495
C      -0.73440353      1.58788976     -0.03273584
C      -2.06894894      0.88791899     -0.28228987
C      -2.16744027     -0.38300635      0.55149502
C      -1.07572524     -1.37215094      0.14776216
H       3.85095371      0.78653480     -0.32582731
H       3.56950637     -1.67093737     -0.14571336
H       1.31402713     -2.64709839      0.08117028
H       1.87649320      2.26683679     -0.28391309
H      -0.61212677      2.38643132     -0.77425662
H      -0.75137477      2.05659356      0.95925452
H      -2.89240844      1.56733552     -0.03540994
H      -2.16639687      0.63748682     -1.34632125
H      -3.15125900     -0.84702247      0.41946058
H      -2.06996195     -0.13257760      1.61552444
H      -1.32562685     -1.80904676     -0.82726932
H      -1.05221331     -2.18806854      0.88001761
