26
CCc1cccc(CC)c1N
C      -2.83331250      1.60510992     -0.42784388
C      -2.62271854      0.11889765     -0.17779291
C      -1.26149459     -0.16812730      0.41892721
C      -1.16322826     -0.23219388      1.82059181
C       0.04870371     -0.51731571      2.43819358
C       1.17505624     -0.76160279      1.66156059
C       1.10982769     -0.70501279      0.25764864
C       2.37317707     -1.01220473     -0.51757389
C       3.16661913      0.24668973     -0.83590580
C      -0.10253255     -0.34087446     -0.37284023
N      -0.20247680     -0.36030063     -1.77766666
H      -3.82696208      1.77933745     -0.85266317
H      -2.09153564      2.00545698     -1.12648770
H      -2.75824739      2.17725092      0.50318504
H      -3.40536963     -0.24655053      0.49935779
H      -2.76148082     -0.44771678     -1.10561266
H      -2.04321367     -0.06854783      2.43888452
H       0.11087145     -0.56819062      3.52162553
H       2.11171938     -1.00926448      2.15629968
H       2.13473446     -1.55624847     -1.43861542
H       3.00349422     -1.69755819      0.06347595
H       2.58504654      0.94665136     -1.44454512
H       3.46479374      0.76831464      0.07995207
H       4.07507900     -0.00972469     -1.39008885
H       0.67012635     -0.15729698     -2.25135506
H      -0.95667649      0.21102222     -2.14071105
