30
O=c1nc(-c2ccccc2)[nH]c(-c2ccccc2)n1
O      -0.20899009     -4.12938114     -0.08670766
C      -0.14706573     -2.90552243     -0.11560428
N       1.10301024     -2.31174091     -0.13195756
C       1.14266487     -1.01690420     -0.19521225
C       2.46869374     -0.33169402     -0.20629008
C       3.58299411     -0.98679988      0.33280842
C       4.82987389     -0.35937528      0.34248407
C       4.97050184      0.92035930     -0.19182237
C       3.86770105      1.57256042     -0.74263726
C       2.61704121      0.94932916     -0.75364161
N      -0.01511101     -0.29089172     -0.23769029
C      -1.23986398     -0.89603763     -0.18181425
C      -2.48978464     -0.08014856     -0.17840677
C      -3.65854185     -0.61943409      0.37352994
C      -4.83533987      0.13094443      0.39683414
C      -4.85172519      1.41864401     -0.13659003
C      -3.69483327      1.95621002     -0.70011186
C      -2.51386530      1.20962170     -0.72478916
N      -1.33073967     -2.18827587     -0.11827150
H       3.48660722     -1.98776106      0.74962077
H       5.69108323     -0.87283961      0.76339937
H       5.94403816      1.40511671     -0.18778785
H       3.98737738      2.56376783     -1.17384640
H       1.78606494      1.46753270     -1.22100377
H       0.03632461      0.70548682     -0.07962175
H      -3.65927469     -1.62524770      0.78980462
H      -5.73931347     -0.29297161      0.82767512
H      -5.77110112      1.99942921     -0.12191180
H      -3.71841739      2.95468494     -1.13051581
H      -1.64000925      1.64133845     -1.20173791
