8
FC(Br)C(F)(F)F
F       1.11923900      1.31873316      0.47961354
C       0.68476121      0.22932660     -0.21181696
Br      1.87111671     -1.27297021      0.16970605
C      -0.75630533     -0.10204467      0.13536211
F      -1.57571041      0.93576519     -0.16642182
F      -1.20651297     -1.16629168     -0.57359983
F      -0.92819846     -0.38326366      1.44623714
H       0.79161027      0.44074528     -1.27908022
