61
CCN(CC)c1ccc(C=CC2=[N+](C)c3ccccc3C2(C)C)cc1.O=P([O-])(O)O
C       5.43263561      1.49516938     -0.43834408
C       4.38081258      1.16928988     -1.49116080
N       3.61327793     -0.05737786     -1.17459898
C       4.32834190     -1.34305812     -1.27619331
C       4.82676515     -1.60882380     -2.69027569
C       2.67985848      0.09148478     -0.13694379
C       1.64531803      1.03276570     -0.25924561
C       0.68024170      1.20306108      0.73944071
C       0.71112973      0.41155634      1.88684716
C      -0.31425676      0.51958803      2.92677692
C      -1.63641522      0.33734108      2.77837685
C      -2.33144159     -0.00512011      1.51410580
N      -2.06923798     -0.98438650      0.69829546
C      -1.12569851     -2.10178142      0.80616305
C      -2.96714923     -0.91084839     -0.46557942
C      -2.98951331     -1.71403163     -1.59178277
C      -3.95059105     -1.43046367     -2.56545245
C      -4.85110597     -0.36517692     -2.39524784
C      -4.80563075      0.43706699     -1.25232081
C      -3.84972463      0.14951851     -0.29207439
C      -3.54834752      0.82557334      1.01685505
C      -3.17607714      2.29521095      0.81044831
C      -4.72791472      0.68879602      1.98531253
C       1.75173775     -0.50517322      2.04581920
C       2.71442932     -0.66720670      1.04123733
O      -0.35374568      0.07038237      1.38248695
P       0.12008848      0.43356145      0.00520999
O       0.60342369      1.79361669     -0.36894429
O      -1.07886679     -0.06372989     -0.93296675
O       1.20023918     -0.70400916     -0.31757250
H       6.17331796      0.69489531     -0.34895228
H       4.98205233      1.65122340      0.54681873
H       5.96462432      2.41182871     -0.71275638
H       4.87126221      1.05814370     -2.46390754
H       3.71657593      2.03250027     -1.61332559
H       5.16536302     -1.38658117     -0.57027937
H       3.64559200     -2.16651293     -1.02966570
H       5.20222357     -2.63428941     -2.76935939
H       4.02375783     -1.48037380     -3.42338462
H       5.64880987     -0.93997826     -2.96162390
H       1.57495162      1.64140165     -1.15864100
H      -0.07639648      1.96981699      0.60299588
H       0.07337061      0.78292153      3.91210018
H      -2.28204905      0.51699556      3.63603446
H      -0.72699087     -2.15584213      1.82110966
H      -1.65700828     -3.03663195      0.60411122
H      -0.32190351     -1.95589563      0.08050024
H      -2.29818538     -2.53545494     -1.74622241
H      -4.00591267     -2.03574889     -3.46999350
H      -5.59207341     -0.16142354     -3.16855418
H      -5.50542196      1.26098590     -1.13565403
H      -4.02153792      2.86988937      0.41503325
H      -2.34845585      2.40458679      0.10075962
H      -2.86648156      2.76502310      1.75049876
H      -4.51214203      1.16758287      2.94673723
H      -4.95937403     -0.36325998      2.19098320
H      -5.63461406      1.15370194      1.58153161
H       1.83087319     -1.10994320      2.94730303
H       3.51432882     -1.38253499      1.21534439
H      -1.75390214     -0.34231428     -0.29148012
H       1.26276326     -1.18750719      0.52326672
