12
Brc1ccccc1Br
Br      2.00039231     -2.50978500     -0.02775667
C       0.82559253     -1.01743529     -0.01119352
C      -0.54813264     -1.28588311     -0.02043100
C      -1.47045726     -0.23825586     -0.00919059
C      -1.02461719      1.08126174      0.01131422
C       0.34410977      1.35481595      0.02060563
C       1.27350552      0.30821726      0.00940802
Br      3.11270345      0.78223324      0.02340103
H      -0.91137695     -2.31094516     -0.03642670
H      -2.53659165     -0.45279200     -0.01644685
H      -1.74215353      1.89844327      0.02008850
H       0.67702566      2.39012496      0.03662794
