50
CCCCCCCCCCCC(=O)OCC(C)C
C       7.96080530      0.65787721     -0.37614934
C       7.02460886     -0.48724982     -0.72802967
C       5.67591191     -0.34588715     -0.02104079
C       4.73716372     -1.49844923     -0.38430920
C       3.41402626     -1.47274638      0.38634958
C       2.53328818     -0.26904633      0.04402108
C       1.17853298     -0.35560275      0.75101751
C       0.29683980      0.84904530      0.41359194
C      -1.05978240      0.75530889      1.11468797
C      -1.94342422      1.99026153      0.90480233
C      -2.32222695      2.27333353     -0.54716232
C      -3.06909264      1.13325938     -1.19169154
O      -2.65345462      0.49624329     -2.14987013
O      -4.26049482      0.92837036     -0.56746213
C      -5.03022987     -0.15657365     -1.10371510
C      -6.29915172     -0.33232928     -0.26030351
C      -5.95892611     -0.69660082      1.18676398
C      -7.20596413     -1.39520303     -0.87671523
H       8.91911602      0.53551455     -0.89030847
H       8.15467485      0.68938321      0.70071739
H       7.53422238      1.61995559     -0.67709291
H       6.87528454     -0.50939804     -1.81378865
H       7.49587201     -1.43579858     -0.44562113
H       5.83110216     -0.32556073      1.06438010
H       5.22289327      0.61111483     -0.30301029
H       5.23872106     -2.45009749     -0.16840368
H       4.53517086     -1.48602670     -1.46229663
H       3.61595099     -1.48951650      1.46433736
H       2.86633766     -2.39455924      0.15375036
H       2.37874452     -0.22285541     -1.04078235
H       3.03304137      0.65945548      0.34186405
H       1.33349310     -0.40619707      1.83573067
H       0.66671015     -1.27900215      0.45348204
H       0.80468837      1.77251475      0.71669903
H       0.15658797      0.89505916     -0.67213270
H      -0.89788131      0.63438157      2.19323268
H      -1.58874597     -0.14448821      0.77862673
H      -1.43084922      2.87081471      1.31106576
H      -2.85599408      1.86207499      1.50013052
H      -2.95448579      3.16710298     -0.60616298
H      -1.43222730      2.48906573     -1.14794190
H      -4.43284128     -1.07667099     -1.08850588
H      -5.30054494      0.08057160     -2.13986310
H      -6.83947689      0.62283295     -0.24002960
H      -5.36049668      0.08723044      1.66255601
H      -5.39252562     -1.63285095      1.23742842
H      -6.87152150     -0.82118308      1.77954217
H      -6.70889328     -2.37063165     -0.91174381
H      -7.48703107     -1.12106075     -1.89905352
H      -8.12752590     -1.50518606     -0.29545501
