41
OC(c1ccccc1)(c1ccccc1)C1CCCCN1
O      -0.11705721     -0.19736930      1.83512645
C      -0.32159697      0.03336282      0.41884460
C      -1.01756613      1.41049670      0.31549026
C      -0.55037566      2.45623009     -0.49662371
C      -1.22801437      3.67823448     -0.55952770
C      -2.38818867      3.87802520      0.18338623
C      -2.87478350      2.85644025      0.99187429
C      -2.19771781      1.63714399      1.05648802
C      -1.24365427     -1.05766503     -0.15805096
C      -1.64938138     -1.00593607     -1.50581446
C      -2.47808321     -1.99212010     -2.04522377
C      -2.91626984     -3.04710071     -1.24935077
C      -2.52890560     -3.11598505      0.08632042
C      -1.70100137     -2.13000368      0.62801099
C       1.13052728     -0.06352083     -0.23849390
C       1.73179837     -1.48941355     -0.13836115
C       3.12323925     -1.56419244     -0.76604421
C       4.04204294     -0.49938108     -0.18366511
C       3.38975044      0.87642472     -0.25077914
N       2.08542891      0.88617053      0.41167861
H       0.12929217      0.67391109      2.19367345
H       0.35322279      2.34941606     -1.09061841
H      -0.84453788      4.47592118     -1.19074030
H      -2.91232921      4.82830315      0.13088696
H      -3.78259195      3.00367348      1.57075173
H      -2.59960442      0.84661007      1.68951199
H      -1.32911639     -0.18637699     -2.14604885
H      -2.78500009     -1.93293525     -3.08614070
H      -3.56254859     -3.81353806     -1.66841824
H      -2.87116930     -3.93706569      0.71071024
H      -1.41103298     -2.20709887      1.67410331
H       1.04820574      0.19555445     -1.30280209
H       1.79291500     -1.80390890      0.91136024
H       1.09547226     -2.21695610     -0.65307595
H       3.55336287     -2.55893008     -0.60509596
H       3.04020399     -1.42208755     -1.85067208
H       4.99196389     -0.48891017     -0.72967995
H       4.27502211     -0.74787952      0.85947746
H       4.03897815      1.60958887      0.24022623
H       3.28255105      1.20181257     -1.29249234
H       2.20654959      0.58105532      1.37979287
