19
COc1ccc(C=O)cc1O
C       3.13092377      0.20164181     -0.00074174
O       1.98788576      1.04109631     -0.12412692
C       0.76503829      0.42613518     -0.05122175
C       0.53730217     -0.93773903      0.13154360
C      -0.77454366     -1.42471202      0.18636338
C      -1.85800639     -0.54747013      0.05837592
C      -3.24051140     -1.06026230      0.11609548
O      -3.48507896     -2.24980983      0.27512273
C      -1.64378417      0.81711349     -0.12460223
C      -0.33606275      1.28465574     -0.17682471
O      -0.14276724      2.62788424     -0.35708617
H       3.17137293     -0.53137628     -0.81317770
H       4.01982290      0.83497455     -0.07896493
H       3.15616852     -0.28881617      0.97793966
H       1.34965930     -1.64951688      0.23482384
H      -0.94930359     -2.48994416      0.32913598
H      -4.04826468     -0.31690652      0.00857067
H      -2.46757644      1.51652108     -0.22630532
H       0.82772564      2.74653095     -0.36491982
