49
CCCCCCCCCCCC[n+]1ccccc1.[Cl-]
C       7.65665081      0.47747276     -1.69511907
C       6.19147106      0.29260209     -1.33046758
C       5.93882636      0.61596237      0.14261926
C       4.45886408      0.55163850      0.53382574
C       3.86665459     -0.85633333      0.43011497
C       2.46155742     -0.96787798      1.03079528
C       1.41263490     -0.14565442      0.27862528
C       0.01107990     -0.37959792      0.84972620
C      -1.03739218      0.44281836      0.09716865
C      -2.44214226      0.34148328      0.70046432
C      -3.06252213     -1.05192801      0.56506838
C      -4.46444028     -1.14240718      1.16382110
N      -5.43214224     -0.33765469      0.37847820
C      -5.86444031      0.85333559      0.85703189
C      -6.78427605      1.61227507      0.14286563
C      -7.26669263      1.13581094     -1.06877077
C      -6.82323168     -0.09141195     -1.54301459
C      -5.90282709     -0.81822306     -0.79736467
Cl      0.00000000      0.00000000      0.00000000
H       7.81740488      0.23809739     -2.75096674
H       7.97515036      1.51160205     -1.52938500
H       8.29556797     -0.17957655     -1.09643269
H       5.57850193      0.94249303     -1.96550212
H       5.90465054     -0.74173380     -1.54801588
H       6.51709415     -0.06715166      0.77668354
H       6.30458111      1.62830432      0.35526644
H       3.89223798      1.24748848     -0.09522761
H       4.36305906      0.90637572      1.56739678
H       3.83425728     -1.17663040     -0.61743022
H       4.52071503     -1.56086850      0.95843986
H       2.16709903     -2.02466744      1.01587430
H       2.48633124     -0.66260391      2.08397723
H       1.65347615      0.92112945      0.34615959
H       1.42529713     -0.41638202     -0.78401935
H      -0.22846832     -1.44646093      0.78244016
H      -0.00150789     -0.10856479      1.91226872
H      -0.73796374      1.49832825      0.10899034
H      -1.06552936      0.13501001     -0.95518195
H      -2.41094084      0.63397837      1.75691451
H      -3.07574816      1.07322717      0.18655081
H      -2.43475409     -1.78376126      1.08495939
H      -3.08198848     -1.34179754     -0.49185841
H      -4.48284033     -0.79960190      2.20398524
H      -4.82845923     -2.17641366      1.14893529
H      -5.46370247      1.19304689      1.80788966
H      -7.12422411      2.57096735      0.52915519
H      -7.98811948      1.71828695     -1.64072414
H      -7.19475850     -0.48026902     -2.48883680
H      -5.53405111     -1.78416250     -1.13089876
