38
C=CC(c1ccc(O)cc1)C(C=C)c1ccc(O)cc1
C      -1.86099469     -3.37327599     -1.15860148
C      -1.42405572     -2.56903808     -0.17926339
C      -0.65057439     -1.27634097     -0.40571616
C      -1.53261578     -0.07182370     -0.06405481
C      -2.03619510      0.13061955      1.23268043
C      -2.82328916      1.24606350      1.52439858
C      -3.11168582      2.16594184      0.52526545
O      -3.88078045      3.24273982      0.85467872
C      -2.62803258      1.98893876     -0.76585373
C      -1.84177691      0.87169171     -1.05859601
C       0.71761563     -1.24345192      0.36992792
C       1.55865392     -2.49111701      0.13201089
C       2.03796473     -3.27978888      1.10416213
C       1.53430030      0.00927731      0.03934477
C       2.02608188      0.24988756     -1.25539599
C       2.75267845      1.40818923     -1.53686840
C       2.99200163      2.33306089     -0.52942218
O       3.70265522      3.45216226     -0.84894447
C       2.51877516      2.11895762      0.75994082
C       1.79311288      0.95889083      1.04242215
H      -1.69590163     -3.14191883     -2.20600465
H      -2.40390925     -4.28434796     -0.92610465
H      -1.61851353     -2.85363634      0.85284157
H      -0.42138104     -1.22325866     -1.48036072
H      -1.82143576     -0.57860306      2.02797772
H      -3.20976192      1.39599909      2.52819340
H      -3.99495737      3.79090532      0.06129949
H      -2.84559188      2.70371214     -1.55273318
H      -1.46174447      0.74724469     -2.07026140
H       0.48618369     -1.21231598      1.44495286
H       1.76768548     -2.75567797     -0.90257096
H       2.62846690     -4.15859064      0.86358529
H       1.86108736     -3.06697083      2.15356997
H       1.84913565     -0.46255276     -2.05710231
H       3.13037865      1.58750299     -2.53918250
H       3.78770763      3.99846153     -0.05063566
H       2.69822047      2.83716531      1.55328084
H       1.42049182      0.80529763      2.05283900
