40
O=c1oc(-c2ccc(-c3nc4ccccc4c(=O)o3)cc2)nc2ccccc12
O       4.77518600     -1.69649158     -2.95421040
C       4.46319170     -1.06887360     -1.94865238
O       3.16798835     -0.88185932     -1.60238035
C       2.86451207     -0.18445501     -0.48669540
C       1.39087287     -0.10149372     -0.29819689
C       0.49037233     -0.69059184     -1.19567803
C      -0.88959845     -0.58893543     -0.98124030
C      -1.39087365      0.10149649      0.13103149
C      -2.86451249      0.18446044      0.31953158
N      -3.70577944     -0.35415948     -0.50033725
C      -5.05960874     -0.20544286     -0.21242612
C      -6.01083482     -0.76786094     -1.06570377
C      -7.37522937     -0.63057250     -0.79546822
C      -7.79650212      0.07220672      0.33321761
C      -6.85229200      0.63663042      1.18993596
C      -5.48880347      0.49099894      0.90654048
C      -4.46319216      1.06891854      1.78146497
O      -4.77518628      1.69657277      2.78700068
O      -3.16798875      0.88189999      1.43519476
C      -0.49037262      0.69059261      1.02851329
C       0.88959745      0.58894053      0.81407257
N       3.70577957      0.35413639      0.33319160
C       5.05960885      0.20541951      0.04527858
C       6.01083502      0.76780848      0.89857346
C       7.37522905      0.63052984      0.62833292
C       7.79650231     -0.07221234     -0.50037572
C       6.85229261     -0.63660319     -1.35711501
C       5.48880415     -0.49098463     -1.07371112
H       0.83980565     -1.23480946     -2.07061290
H      -1.56938822     -1.05520463     -1.69287126
H      -5.68495628     -1.31611240     -1.94613120
H      -8.10758382     -1.07274603     -1.46691878
H      -8.85786943      0.17973276      0.54459961
H      -7.17624088      1.18566637      2.07150033
H      -0.83980296      1.23480741      1.90345083
H       1.56938744      1.05520429      1.52570652
H       5.68495631      1.31604673      1.77900837
H       8.10757990      1.07268582      1.29979829
H       8.85786873     -0.17974051     -0.71176022
H       7.17624559     -1.18560558     -2.23869880
