26
COP(=S)(OC)Oc1ccc([N+](=O)[O-])cc1Cl
C      -3.08520768      2.41644595      0.25804065
O      -3.05289628      1.00903133      0.39532500
P      -1.88968654      0.18866798     -0.37910930
S      -1.91911676      0.28849009     -2.31649993
O      -2.06787799     -1.28306359      0.27548338
C      -3.27451563     -1.98082472      0.03630910
O      -0.56717661      0.73047097      0.37052961
C       0.71601310      0.29828608      0.17477675
C       1.02587304     -0.95139679     -0.36555818
C       2.36155326     -1.33415272     -0.53003934
C       3.38846264     -0.46214182     -0.14525895
N       4.78949241     -0.86642048     -0.31602305
O       5.01044093     -1.99319659     -0.78062248
O       5.66584534     -0.05704499      0.01724938
C       3.09045750      0.78862099      0.40499354
C       1.75390852      1.15970958      0.56402970
Cl      1.41345659      2.71283549      1.24236891
H      -3.79496054      2.82017779      0.98462257
H      -3.42027153      2.68880744     -0.74580602
H      -2.10077530      2.84956878      0.45318391
H      -3.31463542     -2.31776573     -1.00246726
H      -4.13996366     -1.35122341      0.25841226
H      -3.30372990     -2.85744773      0.68854223
H       0.25395770     -1.65653462     -0.66137053
H       2.58126317     -2.31242034     -0.95583629
H       3.88008962      1.47252108      0.70900593
