15
S=c1cnc2cncnc2[nH]1
S       3.78778593     -0.64459404     -0.31303041
C       2.19966632     -0.23980334     -0.07845129
C       1.88411895      0.93669728      0.81005290
N       0.67041476      1.33180613      1.05518918
C      -0.37274844      0.60260077      0.44493651
C      -1.69831384      0.92838136      0.63144988
N      -2.72857021      0.25795172      0.06696587
C      -2.39316039     -0.78119180     -0.71508060
N      -1.14781590     -1.20376674     -0.97979705
C      -0.17227049     -0.49452525     -0.38813012
N       1.13995160     -0.89977189     -0.63631616
H       2.74093259      1.46650550      1.25819203
H      -1.97810982      1.76697098      1.26212763
H      -3.20796886     -1.33008373     -1.17585253
H       1.27608780     -1.69717695     -1.24225582
