23
c1ccc(-c2nc3ncncc3[nH]2)cc1
C      -4.09758075     -0.02472324      0.14527307
C      -3.42343658      0.85489874     -0.69825957
C      -2.02511577      0.84446317     -0.75533393
C      -1.28233643     -0.04812964      0.03258011
C       0.18581323     -0.09977794      0.01019105
N       0.93958800     -0.91766977      0.72863674
C       2.23426688     -0.62971262      0.40128357
N       3.32490005     -1.23364692      0.90631198
C       4.46527952     -0.74411621      0.40039770
N       4.61677062      0.23992450     -0.51446771
C       3.50595001      0.82801105     -1.00391630
C       2.29160807      0.38258217     -0.53515321
N       0.98722293      0.70727859     -0.77242996
C      -1.98062692     -0.92658079      0.87618790
C      -3.37647136     -0.91648052      0.93344869
H      -5.18366520     -0.01589386      0.18893858
H      -3.98776963      1.55132436     -1.31373131
H      -1.54409453      1.54778828     -1.42703611
H       5.38213962     -1.19297589      0.77067687
H       3.63282153      1.61471635     -1.73559802
H       0.66107692      1.41616266     -1.41071428
H      -1.43115973     -1.63126047      1.49998403
H      -3.89518052     -1.60618201      1.59438245
