41
Cc1ccc(NC(=O)C(O)(O)C(=O)Nc2ccc(C)cc2)cc1
C       6.51380166      0.66530539      2.13905091
C       5.33053511      0.46956403      1.23888142
C       5.07825514      1.35990940      0.19186574
C       3.99157752      1.15574974     -0.66423088
C       3.14671993      0.05245137     -0.49750223
N       2.07330782     -0.07636711     -1.39746512
C       1.15498622     -1.10770649     -1.48774202
O       1.14522890     -2.14971789     -0.83171347
C       0.06628821     -0.87087567     -2.58733686
O      -0.46957950     -2.10484696     -3.04445534
O       0.64498151     -0.19545584     -3.69528970
C      -1.07000688     -0.01066175     -1.93983508
O      -1.07101557      1.21191627     -2.08655982
N      -2.01305692     -0.76868860     -1.26815005
C      -3.13247866     -0.31795414     -0.54537222
C      -3.99159576     -1.29224808     -0.02434770
C      -5.12423453     -0.92758007      0.71023098
C      -5.42119131      0.42017392      0.92930437
C      -6.61564395      0.81590022      1.74504587
C      -4.55236431      1.39259470      0.42458572
C      -3.41861054      1.02655361     -0.31060835
C       3.40484488     -0.84191154      0.54085197
C       4.49248591     -0.63831999      1.39847293
H       6.31326624      0.26822101      3.13971960
H       6.74621921      1.72937207      2.25295503
H       7.38816466      0.15456534      1.72412054
H       5.72445408      2.22072253      0.03508009
H       3.82076269      1.87211207     -1.46377347
H       1.99687152      0.63217957     -2.12302652
H       0.15833906     -2.78709262     -2.73668612
H       0.01461458      0.51617651     -3.92020438
H      -1.91721810     -1.77463125     -1.38345841
H      -3.79331287     -2.34975924     -0.17909546
H      -5.77221955     -1.70470954      1.10935792
H      -7.42354589      0.08489447      1.63484641
H      -7.00804429      1.78466561      1.41835015
H      -6.34118345      0.88329176      2.80223020
H      -4.74862466      2.44847014      0.59892682
H      -2.77736697      1.82077569     -0.67871378
H       2.77962653     -1.71129878      0.71607443
H       4.67596232     -1.35573986      2.19561050
