31
CC12CCC(C(CO)C1=O)C2(C)C
C      -1.72495456      1.74129462     -0.50376788
C      -0.72386173      0.76285391      0.06138466
C      -0.82703560      0.52651845      1.58650961
C      -0.02007726     -0.77485962      1.78897825
C       0.51145234     -1.08609885      0.36602094
C       1.62264641     -0.06572622     -0.02053445
C       2.74142789      0.14556390      0.98366391
O       3.80646275      0.86636060      0.36831929
C       0.74226413      1.16902073     -0.13048385
O       1.15989723      2.30518151     -0.30166125
C      -0.69237401     -0.67095653     -0.53622780
C      -1.96928184     -1.50275905     -0.29955363
C      -0.41480111     -0.72781472     -2.05315631
H      -2.75040999      1.37980671     -0.37869937
H      -1.64853546      2.71208106     -0.00170936
H      -1.55302965      1.91681376     -1.57087213
H      -0.39026776      1.34945414      2.16428638
H      -1.86258212      0.39750158      1.91889019
H       0.76876813     -0.65724879      2.53644659
H      -0.67082576     -1.57855833      2.15028664
H       0.83402393     -2.12418776      0.25010252
H       2.03402013     -0.29164064     -1.00986942
H       3.14720287     -0.81466162      1.31587183
H       2.42739121      0.71641677      1.86306591
H       3.43884227      1.72787876      0.08506663
H      -1.79430427     -2.55105796     -0.56742174
H      -2.33374171     -1.49111702      0.72980474
H      -2.79336771     -1.13344637     -0.92083252
H       0.36799613     -0.04356213     -2.39101005
H      -1.31310586     -0.46234134     -2.62281420
H      -0.11983902     -1.74070955     -2.34928333
