28
O=C(c1ccccc1O)N1CCOCC1
O       0.15213353      0.76912526      1.99745887
C       0.14261319      0.63112502      0.77362147
C       1.37589572      0.10694551      0.13445335
C       1.78679269      0.56819663     -1.12394096
C       2.94987463      0.06220873     -1.70918780
C       3.71333474     -0.89183819     -1.03507235
C       3.32829853     -1.32855913      0.23302051
C       2.17467721     -0.81668366      0.82158657
O       1.88211812     -1.25584558      2.08539249
N      -0.96260292      0.94409990     -0.02022652
C      -1.40311326      0.04176829     -1.09481065
C      -2.44242167     -0.95375393     -0.55330344
O      -3.54924672     -0.26750319      0.05562215
C      -3.10111386      0.56537095      1.14162378
C      -2.09217231      1.60449104      0.63955161
H       1.21204292      1.32692522     -1.64918898
H       3.26565846      0.41639181     -2.68771729
H       4.61966330     -1.28484110     -1.48964859
H       3.93390788     -2.05422414      0.76950518
H       1.22910610     -0.62935040      2.47044734
H      -1.85381604      0.67026670     -1.87120125
H      -0.57214037     -0.51336803     -1.53311726
H      -2.83818506     -1.56224574     -1.37225877
H      -1.99560895     -1.63016103      0.18498192
H      -2.66980173     -0.07147492      1.92261794
H      -3.97939885      1.06652883      1.55972394
H      -1.74354410      2.23740268      1.46203365
H      -2.56295116      2.24900247     -0.11196691
