23
C=CCCCCCC=O
C       4.23688382     -0.42786582     -0.48944729
C       3.03420578     -0.97142153     -0.71463885
C       1.83400084     -0.75507175      0.16172825
C       0.70258150     -0.06821089     -0.60576576
C      -0.52269007      0.14718230      0.28585286
C      -1.65578383      0.83224607     -0.48460330
C      -2.88521192      1.08211321      0.38474908
C      -3.69482453     -0.16027706      0.67500930
O      -3.46226912     -1.27297665      0.21540492
H       5.06931649     -0.62675298     -1.15748389
H       4.41976847      0.22325945      0.35954735
H       2.90217781     -1.62245181     -1.57681233
H       2.10034355     -0.15588618      1.04105602
H       1.49431910     -1.72981368      0.53178651
H       1.04983975      0.89898826     -0.99085766
H       0.42014280     -0.67652564     -1.47442720
H      -0.24298916      0.76310580      1.14928158
H      -0.86155837     -0.81906376      0.67633306
H      -1.92680006      0.23152715     -1.36118686
H      -1.29391667      1.79798141     -0.85853270
H      -3.55692323      1.77959609     -0.12807418
H      -2.60029905      1.53362753      1.34088784
H      -4.56031389     -0.00330953      1.34184556
