25
CCOC(=O)OCn1c(=O)[nH]cc(F)c1=O
C      -4.85060356     -0.48786309     -0.46451261
C      -3.82088133     -0.31263844      0.63470915
O      -2.52406016     -0.27686019      0.03165580
C      -1.50663600     -0.12134674      0.91407082
O      -1.61796989     -0.01799902      2.12610699
O      -0.34485544     -0.10155471      0.22110525
C       0.79186722      0.06186394      1.06511696
N       1.96899471      0.07303095      0.22579074
C       2.57711127     -1.14037801     -0.05390044
O       2.21148144     -2.22473965      0.39277194
N       3.66816109     -1.08516508     -0.88732770
C       4.15139294      0.06563041     -1.43970453
C       3.56755718      1.23329262     -1.18332939
F       4.01370082      2.38973171     -1.70714785
C       2.38491692      1.29304531     -0.29327180
O       1.84411399      2.36960855     -0.05105433
H      -4.79005254      0.33520246     -1.18423965
H      -4.66619396     -1.41233303     -1.02170105
H      -5.86202498     -0.52099501     -0.05000165
H      -3.88113285     -1.15379368      1.33450491
H      -4.00728785      0.62579650      1.16901875
H       0.85032824     -0.76754342      1.78007313
H       0.71757025      1.00726351      1.61579238
H       4.10717949     -1.97789242     -1.08773234
H       5.01732300     -0.01522637     -2.08679346
