24
CC(=O)OCCc1ccccc1
C       3.43984111     -1.11065218     -0.75884096
C       2.82994369      0.02405555      0.00531814
O       3.25577657      0.44857404      1.06984894
O       1.73911347      0.49492395     -0.65570656
C       1.05069357      1.59156877     -0.02822283
C       0.11060612      1.11342020      1.08100046
C      -1.07598617      0.34782676      0.54287250
C      -2.21799746      1.02744915      0.09714576
C      -3.30771121      0.32002388     -0.41308704
C      -3.26546005     -1.07102658     -0.48524971
C      -2.13354760     -1.75622999     -0.04803452
C      -1.04286504     -1.05084439      0.46259048
H       4.32613527     -1.47006978     -0.22816882
H       3.74418553     -0.76862981     -1.75120908
H       2.72277319     -1.93168524     -0.83716540
H       1.77859283      2.30978233      0.36854282
H       0.49365334      2.11188042     -0.81541127
H      -0.25716384      1.98038716      1.64371344
H       0.64613503      0.48327422      1.80076109
H      -2.26700058      2.11279676      0.14588047
H      -4.19017069      0.85461642     -0.75460771
H      -4.11432880     -1.62104995     -0.88247728
H      -2.09956278     -2.84096112     -0.10491774
H      -0.16565550     -1.59943055      0.79768758
