33
CC(C)=CCCC(C)CCOC=O
C       2.89878492      1.04411562     -1.47514318
C       2.86421928      0.18068298     -0.24425332
C       3.86727174      0.56481052      0.81176775
C       2.01897991     -0.84997172     -0.04812213
C       0.98566416     -1.37709897     -1.00501956
C      -0.41000166     -0.78129210     -0.77873341
C      -1.02162387     -1.00849411      0.62165688
C      -1.13188519     -2.50088407      0.95492618
C      -2.41864977     -0.36555236      0.74215116
C      -2.41575317      1.15710695      0.62231358
O      -3.74703540      1.62237715      0.89234683
C      -3.88669025      2.96939332      0.82727854
O      -3.01387267      3.78157870      0.56787289
H       3.85114834      0.91426313     -1.99930877
H       2.79901736      2.09889127     -1.19717329
H       2.09429593      0.82406136     -2.18090779
H       4.88358987      0.50046678      0.40948351
H       3.81603914     -0.08654278      1.69060976
H       3.68982208      1.59151045      1.14828712
H       2.07588075     -1.39491808      0.89408398
H       1.28758077     -1.18815992     -2.04137833
H       0.95381580     -2.46939815     -0.91942516
H      -1.08607276     -1.19797715     -1.53663977
H      -0.34928426      0.29462042     -0.98051714
H      -0.37413782     -0.54365855      1.37572225
H      -1.71741573     -3.03344604      0.19791301
H      -1.61968520     -2.64852808      1.92465228
H      -0.14640958     -2.97141461      1.01932966
H      -2.86127569     -0.63106190      1.71165083
H      -3.09792673     -0.78549420     -0.01132704
H      -1.72326653      1.59195371      1.35228477
H      -2.13217398      1.46671263     -0.38881059
H      -4.93294982      3.23134782      1.04856361
