34
CC(C)c1ccccc1C(C)C.OO
C      -2.62503576     -1.31134371     -0.71768218
C      -1.38796817     -1.03367300      0.14850365
C      -1.71816920     -1.24042551      1.62851664
C      -0.77246311      0.34793039     -0.06884031
C      -1.62549711      1.46102695     -0.22751004
C      -1.12378124      2.74197841     -0.45176834
C       0.24570115      2.94187920     -0.52000227
C       1.11175068      1.86448258     -0.34105482
C       0.63191674      0.56183406     -0.08670450
C       1.63578176     -0.57043428      0.12574820
C       2.08591925     -1.14001497     -1.22153356
C       2.85479207     -0.17590710      0.97196074
O       0.63670172     -0.22835190      0.33760758
O      -0.65937978     -0.18513178     -0.32008994
H      -2.91714011     -2.36429973     -0.63406771
H      -2.41971011     -1.10481698     -1.77378882
H      -3.49038807     -0.71341290     -0.41401171
H      -0.66674835     -1.79940703     -0.15437233
H      -2.10505219     -2.25033854      1.80189414
H      -2.47413040     -0.52672657      1.97508413
H      -0.82906703     -1.11124185      2.25539423
H      -2.70518245      1.34434440     -0.17610447
H      -1.80509789      3.57879948     -0.57779249
H       0.64429610      3.93513038     -0.70686502
H       2.17931093      2.05964954     -0.40587952
H       1.15672082     -1.37221208      0.69661837
H       2.76026729     -1.99087467     -1.07677339
H       2.61560583     -0.38901982     -1.81851852
H       1.23066059     -1.48826318     -1.81095957
H       3.52072280      0.51702973      0.44760295
H       3.44678824     -1.06413050      1.22022182
H       2.54519694      0.29245730      1.91268471
H       1.15624893      0.12701616     -0.40838318
H      -1.13357087      0.28646752      0.39086555
