31
Nc1nc(O)c2ncn(C3C=CC(CO)C3)c2n1
N      -4.07298228     -2.47663119      0.86529696
C      -3.45544044     -1.32991303      0.40447751
N      -4.24404701     -0.25286559      0.25027977
C      -3.67591804      0.88772205     -0.18322497
O      -4.49313599      1.98089346     -0.33805058
C      -2.31327448      0.94008754     -0.44911994
N      -1.48405892      1.94467990     -0.88486616
C      -0.29062646      1.38344376     -0.93173339
N      -0.32353675      0.06067273     -0.56481052
C       0.78512727     -0.87588898     -0.50546184
C       1.78167877     -0.70680207     -1.61150138
C       3.00629028     -0.42942858     -1.15466550
C       3.05889203     -0.36143596      0.34451168
C       3.50948934      1.00706640      0.86760208
O       2.56456853      2.02051584      0.54679392
C       1.62768313     -0.74170933      0.77508955
C      -1.61976402     -0.23512722     -0.23519231
N      -2.12677184     -1.39942902      0.20152184
H      -4.93181209     -2.22438252      1.33614974
H      -3.41365363     -3.04911580      1.37132872
H      -3.89570769      2.68175567     -0.65877679
H       0.62601492      1.88351090     -1.22098696
H       0.36229891     -1.88605435     -0.56869791
H       1.52570078     -0.80355099     -2.65849987
H       3.87006486     -0.26753513     -1.78659422
H       3.76520903     -1.11887921      0.70605972
H       4.47804813      1.28698887      0.43935538
H       3.60980804      0.97337532      1.95770491
H       2.90984519      2.85783291      0.90337748
H       1.20123749     -0.03570911      1.49755641
H       1.65877293     -1.71408728      1.28507664
