31
CC(=O)Nc1ncc2ncn(COCCO)c2n1
C       5.24512998     -1.87145731     -0.69432158
C       4.52762826     -1.86821701      0.62748897
O       5.06683662     -2.33612806      1.63463990
N       3.27833369     -1.35375818      0.74162390
C       2.44877005     -0.77569266     -0.20443818
N       2.85170466     -0.65315031     -1.48395200
C       2.01680054     -0.08089346     -2.39181377
C       0.76890414      0.36277692     -1.98099046
N      -0.27282061      0.97109528     -2.63464159
C      -1.19197634      1.15290287     -1.70704653
N      -0.78681213      0.68241181     -0.48744569
C      -1.51155527      0.72789060      0.76580730
O      -2.89648230      0.95598382      0.50884963
C      -3.64910305      0.97592165      1.71929730
C      -5.11026914      1.27688029      1.40472217
O      -5.89420488      1.25383465      2.58990671
C       0.47470006      0.17614954     -0.64163490
N       1.26129864     -0.37812986      0.29519520
H       4.69478311     -2.46810161     -1.42590990
H       6.23154737     -2.32835090     -0.56473209
H       5.39516754     -0.84904746     -1.04976035
H       2.88003209     -1.39638876      1.66645316
H       2.37003055      0.00531863     -3.41105582
H      -2.15964393      1.61457114     -1.86278203
H      -1.08967930      1.54663012      1.35826177
H      -1.37578931     -0.23447556      1.27082024
H      -3.25336183      1.73936143      2.39989299
H      -3.56970632      0.00577432      2.22415770
H      -5.20051224      2.26785887      0.94766136
H      -5.51759769      0.55654218      0.68693895
H      -6.03215297      0.32188701      2.83284151
