41
NCC(=O)NCC(=O)OCCOc1ccc2nc(S(N)(=O)=O)sc2c1
N      -3.93041380      2.22714483      0.09971151
C      -5.31144304      1.79860394     -0.21652637
C      -5.36691535      0.28344005     -0.43807686
O      -6.19422584     -0.25515353     -1.16538656
N      -4.41362722     -0.40451006      0.28101710
C      -4.14630426     -1.80731898      0.02428704
C      -3.14680623     -2.06357709     -1.10310685
O      -2.79823323     -3.18507071     -1.45598492
O      -2.66495646     -0.90600986     -1.63916422
C      -1.71076579     -1.06238441     -2.70551555
C      -0.31288749     -1.35115320     -2.15827060
O       0.13210222     -0.19621878     -1.43711935
C       1.36509873     -0.26145468     -0.84612577
C       2.24192126     -1.34116877     -0.90802840
C       3.48404235     -1.28883114     -0.25935839
C       3.85566203     -0.13796818      0.46212022
N       5.04411084      0.04241020      1.14544849
C       5.05355818      1.24327125      1.69016908
S       6.35067056      1.93533145      2.69022265
N       5.79701457      2.06087691      4.28335570
O       6.56912148      3.29333169      2.24315855
O       7.42176650      0.96576005      2.74495507
S       3.65733997      2.19933732      1.45493963
C       2.96337435      0.93482878      0.51337526
C       1.71746823      0.89129690     -0.13297733
H      -3.35673364      2.08060742     -0.73456849
H      -3.93955007      3.23723808      0.24629348
H      -5.64965097      2.30308095     -1.12651491
H      -5.97883983      2.05162097      0.61229671
H      -3.66286580      0.18902435      0.63030464
H      -3.72666739     -2.22059773      0.94588275
H      -5.08217409     -2.31653569     -0.22414492
H      -2.03778955     -1.84688782     -3.39762637
H      -1.70842707     -0.11537105     -3.25578429
H      -0.34023291     -2.21481197     -1.48526719
H       0.36284094     -1.54325105     -2.99945643
H       1.99895085     -2.24832098     -1.45274638
H       4.16741480     -2.13167843     -0.30824601
H       6.27203261      1.34989106      4.84359099
H       5.98901687      3.00559047      4.62101850
H       1.03600269      1.73557745     -0.08215120
