16
CCC(C#N)CC#N
C       1.88921697      0.64736363     -0.75624456
C       0.67268455     -0.25920358     -0.60177298
C      -0.29832265      0.21882018      0.49712816
C       0.33228854      0.10992468      1.82682677
N       0.81183353      0.01252104      2.87822978
C      -1.59469622     -0.60603622      0.50965396
C      -2.42732026     -0.31735727     -0.66440352
N      -3.07215958     -0.07816808     -1.59800400
H       2.50545622      0.65320401      0.14785453
H       2.51506829      0.29698415     -1.58336436
H       1.58541541      1.67607671     -0.97473534
H       1.01482599     -1.28047313     -0.39086816
H       0.15716314     -0.29121858     -1.56875536
H      -0.54553427      1.27349051      0.31537575
H      -2.17830503     -0.37719600      1.41105588
H      -1.36761462     -1.67873204      0.55202345
