35
CC(=O)OCCC(C)CC(C)(C)C
C       5.90408026      0.18793261      0.63341152
C       4.75744675     -0.20378877     -0.24723641
O       4.87537651     -0.64245560     -1.38243760
O       3.57983780      0.00137838      0.40361454
C       2.41548003     -0.34546349     -0.36200426
C       1.18596483     -0.03724256      0.49106302
C      -0.16160616     -0.21823743     -0.24767075
C      -0.39725781     -1.68647260     -0.60020156
C      -1.28509940      0.38538710      0.63567200
C      -2.73826428      0.48106886      0.08343153
C      -2.77183659      0.93961732     -1.38170223
C      -3.49194242      1.53151518      0.93293483
C      -3.50128877     -0.84708822      0.23261190
H       5.83210789      1.24882812      0.88576948
H       6.84429178      0.01957797      0.10048126
H       5.90240789     -0.42451572      1.53854261
H       2.39446990      0.25019220     -1.28187353
H       2.46283904     -1.41035098     -0.61009108
H       1.20922005     -0.65748182      1.39677900
H       1.27529499      0.99830749      0.84588817
H      -0.10277241      0.35606760     -1.18027065
H      -1.22973760     -1.79495169     -1.29853486
H      -0.60867312     -2.28157968      0.29408304
H       0.46678357     -2.13005118     -1.10237311
H      -1.30566064     -0.14706768      1.59691659
H      -0.96556914      1.40895249      0.88040317
H      -2.33601167      0.19298904     -2.05264958
H      -2.21968239      1.87673071     -1.51401667
H      -3.80107288      1.11152316     -1.71746315
H      -3.02748973      2.52046766      0.84624776
H      -3.49389869      1.25381315      1.99317900
H      -4.53540684      1.63026602      0.61219316
H      -4.56335714     -0.71694481     -0.00757094
H      -3.12714995     -1.62633249     -0.43287716
H      -3.44182364     -1.22459033      1.25952084
