38
COc1ccc(/C=C/C(=O)OCCC(C)C)cc1
C       7.67006282     -0.22158226      0.13320961
O       6.85695409      0.92572395      0.34375109
C       5.52521742      0.80001508      0.06145393
C       4.89099552     -0.34477882     -0.41849659
C       3.51160013     -0.33606899     -0.66643068
C       2.74659051      0.81263476     -0.42881802
C       1.30496649      0.87202570     -0.70242066
C       0.46039025     -0.15073448     -0.50117515
C      -0.97823828      0.01398673     -0.79229366
O      -1.50082921      1.03218255     -1.21295419
O      -1.59637089     -1.15912967     -0.50657766
C      -3.01567200     -1.18211736     -0.73375566
C      -3.74733326     -0.65881977      0.50116007
C      -5.27633137     -0.79421594      0.41590066
C      -5.87236890      0.04914237     -0.71202569
C      -5.90857167     -0.39276369      1.75068527
C       3.39321412      1.96237090      0.03630430
C       4.76921735      1.95181905      0.28432610
H       8.69641594      0.04125875      0.40698697
H       7.67187067     -0.51584263     -0.92153060
H       7.35633532     -1.05128561      0.77529466
H       5.43757148     -1.26036856     -0.61764597
H       3.05044221     -1.23846040     -1.06049659
H       0.92959448      1.82703580     -1.06806840
H       0.77752297     -1.11031054     -0.11331838
H      -3.28826309     -2.22719623     -0.91603254
H      -3.26864618     -0.62075641     -1.63977736
H      -3.37840130     -1.20673187      1.37836248
H      -3.47074167      0.38866900      0.67610316
H      -5.52719091     -1.84591618      0.22840499
H      -5.53198591     -0.29802781     -1.69213528
H      -5.59559880      1.10374495     -0.60806438
H      -6.96593436     -0.01483489     -0.70817332
H      -5.69563738      0.65410374      1.99280827
H      -5.52438417     -1.01464721      2.56619444
H      -6.99601263     -0.51933843      1.72029342
H       2.83407902      2.87743423      0.21915827
H       5.25547122      2.85178018      0.65313813
