13
CCC(Cl)[N+](=O)[O-]
C      -1.78417260     -0.19332261      0.05424318
C      -0.33630680     -0.25764167      0.52206328
C       0.64189369      0.27890649     -0.51976792
Cl      0.50196957      2.03205640     -0.78163194
N       2.06277416      0.04554728     -0.05717395
O       2.82478810     -0.50916501     -0.86258301
O       2.37322278      0.39290618      1.09211525
H      -2.44126185     -0.64625612      0.80364457
H      -1.91676774     -0.73918475     -0.88531468
H      -2.11329162      0.83908535     -0.09663221
H      -0.09345746     -1.30442234      0.74572301
H      -0.24528510      0.29032357      1.46842005
H       0.52589487     -0.22883278     -1.48310563
