36
CC(=O)CC(C)=NCCN=C(C)CC(C)=O
C       2.43181391      2.09066485     -0.02260484
C       2.03081785      2.14464537      1.42831332
O       1.36668739      3.08047890      1.87655454
C       2.42945771      0.98046309      2.29679000
C       1.51304447     -0.19824927      2.08417714
C       0.17744534     -0.16772142      2.78845871
N       1.92592119     -1.12787356      1.29126443
C       1.05493939     -2.26089372      0.96496455
C       0.51373269     -2.10348194     -0.46398927
N      -0.40211011     -0.95672907     -0.52036513
C      -0.76893931     -0.51303489     -1.67513347
C      -0.36123673     -1.10833288     -3.00115053
C      -1.68318546      0.68594234     -1.69878871
C      -3.12839492      0.28197750     -1.81695021
C      -3.83596354     -0.12031371     -0.55029264
O      -3.69111372      0.23727749     -2.91153319
H       1.91343741      1.26879709     -0.52257335
H       2.16364860      3.03128307     -0.51180056
H       3.51377836      1.95682416     -0.10198579
H       2.39692281      1.28699501      3.34754211
H       3.46628228      0.70858631      2.07362778
H       0.12418615     -0.99509426      3.50136592
H      -0.63845151     -0.24525031      2.06790070
H       0.05629085      0.76839171      3.34123140
H       1.66193031     -3.17220848      1.01376271
H       0.23234795     -2.40294731      1.67247717
H      -0.02519753     -3.01718851     -0.73921213
H       1.35891620     -1.96915296     -1.14918157
H      -0.96154718     -0.68474133     -3.81112968
H       0.69126903     -0.88107537     -3.19088154
H      -0.50965014     -2.19124049     -2.99397161
H      -1.54976616      1.28327735     -0.79072463
H      -1.42085498      1.33028290     -2.54476914
H      -3.38256400     -1.02770878     -0.14586703
H      -3.77374862      0.69105602      0.17944662
H      -4.89014600     -0.31806420     -0.76497209
