22
COc1c(O)ccc(C=O)c1C
C       2.75499750     -0.08020162      0.09309441
O       1.82890071      0.08032931     -0.98738446
C       0.58348116      0.38715059     -0.49232107
C       0.25152732      1.74032034     -0.35732676
O       1.13201352      2.71510586     -0.73239038
C      -0.97856185      2.12513670      0.14908020
C      -1.90122815      1.14301542      0.50313818
C      -1.59553542     -0.21924523      0.33249993
C      -2.63038468     -1.20865519      0.72358158
O      -3.72171409     -0.87130604      1.16842678
C      -0.34722949     -0.62077400     -0.19008155
C      -0.01340153     -2.06942173     -0.41539420
H       2.87461299      0.85318436      0.65381332
H       2.45044619     -0.89007229      0.76471877
H       3.72561383     -0.34373229     -0.33740159
H       1.84694477      2.25658565     -1.21272554
H      -1.22210297      3.17759099      0.26063525
H      -2.86883642      1.44279387      0.90324778
H      -2.38546743     -2.27516852      0.60684478
H      -0.78154238     -2.54565152     -1.03363040
H       0.06258398     -2.59186886      0.54349757
H       0.93488243     -2.20511580     -0.94392262
