38
Clc1ccc(CSC(Cn2cncn2)=Nc2ccc(Cl)cc2Cl)cc1
Cl      8.06921397      0.32555942     -0.18416649
C       6.36851890      0.07777020     -0.10199930
C       5.68322672      0.36597915      1.07598272
C       4.30243359      0.16565945      1.14270923
C       3.60009627     -0.32880526      0.03252715
C       2.10494230     -0.53014600      0.09932922
S       1.22177477      0.98484064     -0.38028198
C      -0.44580148      0.40179581     -0.35682106
C      -1.42085993      1.28239777     -1.10566789
N      -2.25585124      2.04537816     -0.20287755
C      -1.87186913      2.94002555      0.74698520
N      -2.93551503      3.43117383      1.33993750
C      -3.96511144      2.81783277      0.68587038
N      -3.59894581      1.96462461     -0.27404494
N      -0.69904000     -0.69190349      0.29420377
C      -2.00646558     -1.20637627      0.33373579
C      -2.78911851     -0.95329397      1.46604174
C      -4.08565688     -1.46413294      1.56411021
C      -4.60021304     -2.24905179      0.53439430
Cl     -6.19641347     -2.87829363      0.65847670
C      -3.83028149     -2.53660091     -0.58957856
C      -2.53525476     -2.02289296     -0.68364677
Cl     -1.60036123     -2.41207628     -2.08640322
C       4.30445736     -0.60778517     -1.14905923
C       5.68531426     -0.40728808     -1.21485131
H       6.21534660      0.74827823      1.94290084
H       3.77646315      0.40053261      2.06606080
H       1.81820635     -1.35353483     -0.56515604
H       1.82314611     -0.82016764      1.11802299
H      -2.06658661      0.67352688     -1.74513167
H      -0.90938486      2.00510271     -1.75019370
H      -0.84283094      3.19167239      0.96494464
H      -5.00774593      2.99914335      0.91444136
H      -2.39084677     -0.34615740      2.27585937
H      -4.68510593     -1.24475407      2.44418098
H      -4.23410838     -3.15796832     -1.38394559
H       3.78086477     -0.98149813     -2.02678598
H       6.21936334     -0.62856641     -2.13500531
