55
CCCCCCCCCNC(=O)OCC1OC(O)C(O)C(O)C1O
C       8.96317286      2.25388327      0.67754246
C       7.48569253      1.99412687      0.42863045
C       7.18233416      0.49707829      0.36518358
C       5.69087787      0.24177084      0.13666913
C       5.39232064     -1.25642625      0.04227311
C       3.91738725     -1.56161459     -0.23913431
C       2.99836712     -1.21280849      0.93469202
C       1.55646354     -1.68722993      0.73320308
C       0.83365327     -0.95618639     -0.39756640
N      -0.54689857     -1.36982881     -0.49771120
C      -1.52988720     -0.85813769      0.29505386
O      -1.37946481      0.03537430      1.11329496
O      -2.68117623     -1.52166782      0.03964970
C      -3.84685417     -1.10906095      0.78412753
C      -4.98365234     -0.83501033     -0.20888975
O      -4.68657849      0.39676029     -0.89227341
C      -5.65442370      0.76175123     -1.87277585
O      -5.65910398     -0.20201973     -2.91310722
C      -7.06127913      0.91605109     -1.26823502
O      -7.10369709      2.05251840     -0.38302428
C      -7.44314183     -0.34273460     -0.48078262
O      -8.65998532     -0.08480118      0.24454836
C      -6.33666463     -0.74013171      0.50649391
O      -6.30555666      0.23136651      1.56695724
H       9.15771537      3.33064966      0.71401538
H       9.57737970      1.82379977     -0.12024266
H       9.28270427      1.81881632      1.63022749
H       6.89905583      2.46061930      1.22898339
H       7.18953669      2.47354273     -0.51180043
H       7.76405887      0.03890876     -0.44434000
H       7.49660591      0.01834461      1.30090494
H       5.37068714      0.73676033     -0.78828524
H       5.12153477      0.69076853      0.95848503
H       5.70357898     -1.75859229      0.96631837
H       5.99219167     -1.68782314     -0.76899899
H       3.60374141     -1.02418655     -1.14107779
H       3.82499074     -2.63230850     -0.45840975
H       2.99861310     -0.13157524      1.11114497
H       3.38818221     -1.68354469      1.84566060
H       1.54108492     -2.76798331      0.54525253
H       1.01026302     -1.53186246      1.67241807
H       1.29739158     -1.17239105     -1.36471291
H       0.86602229      0.12638711     -0.23241826
H      -0.80326915     -2.16966267     -1.05779781
H      -3.65128009     -0.22232223      1.39600707
H      -4.10715457     -1.94173278      1.44564855
H      -5.00557767     -1.64153997     -0.95279245
H      -5.34095376      1.72375747     -2.29277519
H      -4.83896261     -0.03433629     -3.40980517
H      -7.80055042      1.09678259     -2.05723753
H      -8.02401422      2.07490286     -0.05194148
H      -7.63356389     -1.16916115     -1.17523309
H      -8.38248981      0.11209403      1.16414955
H      -6.59230221     -1.69546853      0.97886645
H      -6.04712514      1.08595973      1.15496701
