21
CCC(N)(CO)CO
C      -2.39761102     -0.12440199     -0.23830777
C      -1.24209469      0.50941050      0.52859331
C       0.16801308     -0.00087943      0.15286828
N       0.28359231     -1.46851149      0.37502612
C       1.21962180      0.70687865      1.05914368
O       2.51821500      0.13212225      0.88857702
C       0.49625149      0.28431682     -1.33581790
O       1.77098134     -0.27237853     -1.67822731
H      -2.40850611     -1.21258599     -0.12681677
H      -3.34964542      0.25784150      0.14504404
H      -2.35562715      0.11726517     -1.30390317
H      -1.28530025      1.59618720      0.38014139
H      -1.41658149      0.34073129      1.59965974
H      -0.15132686     -1.69855034      1.27059821
H       1.27931391     -1.66061890      0.54497661
H       1.28439735      1.77663361      0.83232286
H       0.95792189      0.60127896      2.11774035
H       2.69566457      0.14561017     -0.07717158
H       0.53743817      1.36142137     -1.52870410
H      -0.24108422     -0.15372202     -2.01576343
H       1.63636629     -1.23804879     -1.58997957
