16
Nc1ccc(N)cc1
N       2.75384957     -0.44945336      0.32798742
C       1.39418128     -0.19805256      0.11322187
C       0.58154545     -1.16880828     -0.47287131
C      -0.79976785     -0.97202308     -0.58605242
C      -1.39386245      0.19913892     -0.11522311
N      -2.78603046      0.33977145     -0.12593553
C      -0.59819144      1.11207367      0.57738549
C       0.78312177      0.91528828      0.69056694
H       3.16593502     -1.07711303     -0.35492560
H       3.30783756      0.39001865      0.46409513
H       1.01254419     -2.09692080     -0.83755761
H      -1.40739361     -1.75217084     -1.03584078
H      -3.09970275      1.30285198     -0.06092144
H      -3.24160551     -0.16428070     -0.87994086
H      -1.04619929      1.98221508      1.04886398
H       1.37373852      1.63746462      1.24714782
