22
Clc1cc(-c2cccc(Cl)c2Cl)cc(Cl)c1Cl
Cl     -3.39292667     -2.85238019      0.88845458
C      -2.70798128     -1.38329514      0.28143587
C      -1.32193923     -1.22764113      0.41066007
C      -0.68302750     -0.06977822     -0.05204123
C       0.77163369      0.09090683      0.08358196
C       1.27656532      0.69333157      1.25146528
C       2.64755400      0.87199090      1.43507645
C       3.53941708      0.45075562      0.45254692
C       3.06411576     -0.15027210     -0.71641777
Cl      4.24046848     -0.64384052     -1.88518819
C       1.68468540     -0.33332043     -0.90789653
Cl      1.08958325     -1.08081209     -2.36120696
C      -1.46238602      0.93327824     -0.64316363
C      -2.84869489      0.78173016     -0.77439257
Cl     -3.71370989      2.08321341     -1.51852311
C      -3.48466997     -0.37906553     -0.31286707
Cl     -5.20238385     -0.56730463     -0.46993689
H      -0.73322132     -2.02020891      0.87129357
H       0.59404333      1.02951603      2.03170361
H       3.01952424      1.33961063      2.34428173
H       4.60747977      0.59331361      0.60249655
H      -0.98412970      1.84027189     -1.01136265
