22
O=C(O)CNC(=O)c1ccccc1
O       4.02238819      1.95517579     -1.95554609
C       3.26475861      1.37103674     -1.19133579
O       3.14420315      1.72655224      0.10792353
C       2.47934075      0.12211903     -1.58743665
N       1.09430062      0.08678511     -1.13190711
C       0.75661228     -0.18203673      0.17186120
O       1.61657626     -0.20856148      1.04820107
C      -0.68752909     -0.33624782      0.49009187
C      -1.61658672     -0.76993916     -0.46457892
C      -2.96345574     -0.90190182     -0.11731091
C      -3.38400060     -0.60967960      1.18006511
C      -2.46008701     -0.19277041      2.13729003
C      -1.11318272     -0.06044713      1.79563916
H       2.62692976      1.06413719      0.62951046
H       3.00850004     -0.75293011     -1.19604326
H       2.45214815      0.06223180     -2.67992606
H       0.37480145      0.33135608     -1.80003168
H      -1.31110569     -1.03548267     -1.47206926
H      -3.68589685     -1.24177913     -0.85589037
H      -4.43266756     -0.71541838      1.44859828
H      -2.78719530      0.02650121      3.15094206
H      -0.39885195      0.26129923      2.55104072
