30
CC1=C/C(=N\Nc2ccccc2[N+](=O)[O-])C(=O)C=C1
C      -4.42518219      1.01699099     -0.38688936
C      -3.46219684     -0.10009900     -0.09945718
C      -2.13368796      0.06912661     -0.18874951
C      -1.19815130     -1.05777426      0.09953812
N       0.10099071     -1.00515365      0.10954467
N       0.69157726      0.20256914     -0.11805015
C       2.11194016      0.22888967     -0.19668147
C       2.83070657     -0.95138550     -0.46174792
C       4.22048758     -0.94501410     -0.62540016
C       4.92990671      0.24974749     -0.55351660
C       4.24914243      1.44329074     -0.32545010
C       2.85105740      1.43109240     -0.15918939
N       2.18143317      2.71511987      0.06440472
O       2.75377345      3.74181540     -0.32932839
O       1.08116072      2.70604519      0.64212850
C      -1.84165146     -2.41381520      0.40356375
O      -1.17494054     -3.42689063      0.56130192
C      -3.31426770     -2.46560679      0.51103122
C      -4.04468890     -1.37086352      0.27658413
H      -3.90812113      1.94160443     -0.66574870
H      -5.09059715      0.74797278     -1.21439812
H      -5.03713587      1.23390019      0.49536946
H      -1.70238154      1.01797284     -0.48164303
H       0.34195017      0.99703636      0.43492074
H       2.30252650     -1.90104838     -0.54028298
H       4.74227400     -1.88031306     -0.81600304
H       6.00952024      0.25074621     -0.68408120
H       4.81399344      2.37255418     -0.28255396
H      -3.75129063     -3.41910929      0.77864517
H      -5.12814732     -1.42940112      0.35905024
