24
CC(=O)NC(CCC(=O)O)C(=O)O
C      -1.59606063      2.65777898      0.69878078
C      -0.79723847      1.38518063      0.77487610
O      -0.08468193      1.10889170      1.73696173
N      -0.92472565      0.56455236     -0.31365003
C      -0.37489856     -0.79622230     -0.36504109
C       1.05298201     -0.81091932     -0.93020976
C       2.11801320     -0.21620688     -0.01211382
C       2.34614986     -1.06528916      1.21248998
O       3.05383929     -2.06213944      1.21073643
O       1.67490427     -0.66007977      2.30800537
C      -1.27445628     -1.67205088     -1.25210405
O      -1.12485961     -2.85751228     -1.49672836
O      -2.31251257     -0.99634421     -1.80266649
H      -2.47714556      2.56660088      1.33827601
H      -1.91660757      2.86842642     -0.32589447
H      -0.97631412      3.49049811      1.04229448
H      -1.67467807      0.74740848     -0.97728938
H      -0.42069438     -1.22301341      0.64271643
H       1.07060807     -0.26393086     -1.88283570
H       1.33846141     -1.84443152     -1.16741499
H       3.07523158     -0.18180528     -0.54857122
H       1.91452486      0.82145283      0.26314847
H       1.08734294      0.12670521      2.17132502
H      -2.77718409     -1.68755027     -2.32509142
