48
C=C[C@H]1CN2CCC1C[C@H]2[C@H](O)c1ccnc2ccc(OC)cc12
C      -4.31617592      0.36293727      2.38195633
C      -4.03265410      0.09904450      1.09976913
C      -2.62976960     -0.07637917      0.56611958
C      -2.43916781     -1.43776356     -0.15378856
N      -1.98833087     -1.28915525     -1.56504897
C      -3.01945649     -0.46919510     -2.25646333
C      -3.06272863      0.96498937     -1.70232196
C      -2.21935941      1.04789165     -0.41664724
C      -0.74916807      0.76684436     -0.79669108
C      -0.68771450     -0.52798282     -1.63111947
C       0.58305254     -1.43842871     -1.49125681
O       0.26524639     -2.72817681     -2.05669451
C       1.21208721     -1.62655962     -0.12198296
C       0.86547402     -2.74353028      0.64966653
C       1.42979973     -2.90346675      1.89824166
N       2.31148448     -2.04080573      2.43554275
C       2.68047610     -0.98100751      1.70252921
C       3.60760659     -0.11039344      2.25651787
C       4.06687003      1.02264854      1.57805918
C       3.59137538      1.29835613      0.30540674
O       3.94416530      2.36215727     -0.47644839
C       4.92217145      3.25057239      0.05109678
C       2.65636290      0.43291715     -0.26914804
C       2.17340175     -0.71644647      0.40840853
H      -3.53716331      0.47488044      3.13016060
H      -5.34467298      0.47513680      2.71201121
H      -4.85755288     -0.00524532      0.39762203
H      -1.93248328     -0.05212044      1.41607802
H      -3.36343551     -2.03080423     -0.13956487
H      -1.71944064     -2.04340493      0.40162603
H      -4.00300242     -0.94580300     -2.15629073
H      -2.81677259     -0.44731179     -3.33445539
H      -2.66485818      1.66455163     -2.44793268
H      -4.09973355      1.26225682     -1.51178516
H      -2.30968351      2.03623094      0.04760725
H      -0.34799668      1.60267451     -1.38245319
H      -0.16335791      0.70515348      0.12314734
H      -0.62088858     -0.20921297     -2.68412697
H       1.35375806     -1.04835835     -2.16526663
H      -0.71091089     -2.71649309     -2.15692906
H       0.17035994     -3.49115391      0.27989033
H       1.18042165     -3.75942864      2.51858093
H       3.98966505     -0.32273428      3.25309805
H       4.79211482      1.65666601      2.07611920
H       5.10403724      4.02903318     -0.69611130
H       5.87029566      2.73297726      0.23083811
H       4.55955631      3.74020405      0.96092055
H       2.30669568      0.67767802     -1.26848664
