23
Clc1ccc(Oc2ccc(Cl)cc2Cl)cc1
Cl     -5.26325623     -0.77949757      0.20862270
C      -3.59055839     -0.70481583     -0.18675501
C      -2.94882759     -1.83342664     -0.69577532
C      -1.59128352     -1.77208727     -1.01628280
C      -0.87995403     -0.58836553     -0.81131318
O       0.44746836     -0.59184548     -1.17650103
C       1.33610904      0.00094145     -0.30672074
C       1.42823876     -0.42857841      1.02267767
C       2.36432767      0.15538593      1.87791042
C       3.21366882      1.15297164      1.39891404
Cl      4.36556596      1.86929901      2.45735492
C       3.14262777      1.57113304      0.07119076
C       2.20678179      0.98775580     -0.78429397
Cl      2.14173479      1.52387577     -2.42343171
C      -1.53030801      0.54877410     -0.32296019
C      -2.88857128      0.48637018     -0.00277761
H      -3.49864660     -2.75799986     -0.84982094
H      -1.08879250     -2.64595479     -1.42282845
H       0.78026021     -1.21868387      1.39386916
H       2.43042085     -0.17539294      2.91164682
H       3.81324094      2.34355349     -0.29529866
H      -0.99684006      1.48720164     -0.20038905
H      -3.39340676      1.36938614      0.38007256
