27
CC(C)COC(=O)C(C)(C)O
C      -2.24740128      0.50201374     -1.60500707
C      -2.25180178     -0.49731025     -0.44598783
C      -3.64323713     -0.58181534      0.17747772
C      -1.21064563     -0.12402199      0.61649214
O       0.09572517     -0.17014985      0.02559394
C       1.10817299      0.16581859      0.86940785
O       0.96967464      0.50143026      2.04173910
C       2.47744056      0.12267566      0.16927616
C       2.71214657     -1.23237737     -0.49091094
C       2.57101644      1.26179041     -0.84150853
O       3.52723614      0.31051431      1.12870591
H      -1.27226987      0.52755269     -2.10224279
H      -2.47673017      1.51468363     -1.25621437
H      -2.99437928      0.22620814     -2.35703295
H      -1.99099051     -1.47999775     -0.85934063
H      -3.94987292      0.38185395      0.59832570
H      -4.38728592     -0.87731658     -0.56976408
H      -3.66451830     -1.32506539      0.98144908
H      -1.40403604      0.88447971      1.00246034
H      -1.25069841     -0.84124532      1.44518568
H       1.99478497     -1.42873555     -1.29451848
H       3.72390184     -1.29566884     -0.90726107
H       2.62335969     -2.04039637      0.24464155
H       3.56506485      1.29757231     -1.30124215
H       1.82301380      1.16564609     -1.63551182
H       2.41713795      2.22942826     -0.34963502
H       3.13519162      0.80243286      1.87801805
