22
N[C@@H](Cc1cnc[nH]1)C(=O)O.[Cl-].[H+]
N      -2.41688029     -1.05156021      1.05787207
C      -1.29359381     -0.18836501      0.74559719
C      -0.18648360     -1.07533214      0.17203543
C       1.02473727     -0.30107291     -0.19014015
C       1.32039548      0.28017818     -1.40501040
N       2.52654970      0.90257573     -1.32930700
C       2.98886904      0.71917019     -0.08656475
N       2.08765792     -0.00607361      0.60543973
C      -1.72532199      0.80046554     -0.25576211
O      -2.90115746      0.74180518     -0.68882934
O      -0.92557136      1.80706122     -0.76649224
Cl      0.00000000      0.00000000      0.00000000
H       0.00000000      0.00000000      0.00000000
H      -2.55293518     -1.67347634      0.22691212
H      -2.18725401     -1.61235523      1.91434333
H      -0.93422201      0.28292510      1.69141603
H       0.03745810     -1.86945748      0.93442017
H      -0.59433018     -1.61316418     -0.70486404
H       0.74387637      0.28105048     -2.30630435
H       3.93848443      1.10420194      0.27492437
H       2.16530722     -0.30537777      1.58639208
H      -1.11558564      2.77680135     -0.74500967
