20
COC(C)C(N)C(=O)O
C       1.71845856      1.70316819     -0.51622494
O       0.73726975      0.69454333     -0.72068799
C       0.45745052     -0.07712947      0.46546237
C       1.55259139     -1.12425094      0.67545981
C      -0.92429479     -0.75014340      0.28456940
N      -1.00566266     -1.51403497     -0.99353444
C      -2.01695844      0.32437184      0.35728539
O      -2.08877736      1.23778061      1.16518376
O      -3.00393791      0.15485090     -0.55524108
H       1.81927584      2.27227898     -1.44445610
H       2.69022892      1.26381876     -0.27752086
H       1.40636176      2.38889569      0.27717113
H       0.42444845      0.59076796      1.33574867
H       2.50730837     -0.64720648      0.91820703
H       1.72055884     -1.71415515     -0.23182853
H       1.30029586     -1.80082565      1.49794155
H      -1.12628111     -1.44661840      1.10637185
H      -1.99392207     -1.53480336     -1.26324201
H      -0.56057654     -0.92263479     -1.70323799
H      -3.61383738      0.90132636     -0.37742702
