48
CCCCCCC(=O)N(C)c1ccc(S(=O)(=O)N(C)C)cc1
C      -6.44773366      2.60258049     -0.22777575
C      -5.13887763      1.94664530      0.18222009
C      -4.50560347      1.18471772     -0.98169361
C      -3.18905543      0.52628953     -0.56487438
C      -2.55471919     -0.23450270     -1.73334767
C      -1.21777269     -0.87864547     -1.35041792
C      -1.37626638     -2.06735652     -0.40502996
O      -2.44388008     -2.68666747     -0.37004840
N      -0.31218822     -2.39022831      0.44465964
C      -0.60996744     -3.29096753      1.55610124
C       1.01694402     -1.87978734      0.35536431
C       1.73543578     -1.56576689      1.52061861
C       3.04645366     -1.08360506      1.45144264
C       3.65397644     -0.91584777      0.20665256
S       5.33878649     -0.34062321      0.11383220
O       5.96377595     -0.63527227      1.38606127
O       5.89550031     -0.83985967     -1.12578230
N       5.16306022      1.34600730     -0.01859250
C       4.60911712      1.86428612     -1.28048269
C       4.67425487      2.06345916      1.17059580
C       2.97734381     -1.27204983     -0.96054336
C       1.66519172     -1.75068363     -0.88095767
H      -7.17310432      1.85462164     -0.56352850
H      -6.88316574      3.14172981      0.61935239
H      -6.29008489      3.31812755     -1.04108575
H      -5.32607103      1.26209348      1.01772041
H      -4.44784514      2.71747102      0.54277782
H      -5.20227953      0.41747504     -1.34092308
H      -4.32450078      1.87312087     -1.81616129
H      -3.37366082     -0.15616078      0.27278576
H      -2.49265345      1.29442103     -0.20701228
H      -3.25220530     -0.99353139     -2.10728635
H      -2.37666203      0.46608671     -2.55864223
H      -0.75573419     -1.24828842     -2.27120444
H      -0.57352186     -0.11371564     -0.90636385
H      -0.92183423     -2.69411375      2.41900859
H       0.26690049     -3.89567560      1.80963753
H      -1.42245366     -3.97879852      1.30312938
H       1.27920085     -1.66844348      2.50236270
H       3.58292715     -0.84939013      2.36869613
H       5.06614278      1.37573647     -2.14519530
H       4.83077013      2.93312789     -1.36730895
H       3.52418472      1.73236697     -1.31754588
H       5.17916705      1.71955133      2.07728123
H       4.89458718      3.13151297      1.07158446
H       3.59354017      1.94293401      1.28624491
H       3.46690998     -1.20374063     -1.93004238
H       1.18767026     -2.08064041     -1.79930999
