15
CC(C)(O)CCl
C       1.34729082     -0.76537009      0.12858213
C       0.04408502      0.03140021      0.23486254
C       0.15257106      1.30687151     -0.60519899
O      -0.09957625      0.40721946      1.60993795
C      -1.13613493     -0.86407739     -0.18669144
Cl     -2.71136361     -0.03636416     -0.00998925
H       1.54283120     -1.08424238     -0.90047898
H       1.31341092     -1.65541244      0.76751390
H       2.19979140     -0.17024748      0.47590209
H       0.23623700      1.07859707     -1.67266705
H       1.03123440      1.89142961     -0.30806716
H      -0.70838798      1.96650596     -0.45460148
H      -0.97471866      0.82901559      1.70232856
H      -1.19178572     -1.75368717      0.44868287
H      -1.04548467     -1.18163830     -1.23011570
