29
CC(=O)NC(CSc1ccc(Cl)c(Cl)c1)C(=O)O
C      -1.93785779      0.21489639      4.13732269
C      -1.62580566     -0.89810202      3.17633353
O      -1.58690385     -2.07977476      3.51016347
N      -1.43769209     -0.52042152      1.87279433
C      -0.84190772     -1.43237322      0.87451133
C      -0.36980665     -0.65816980     -0.37246464
S       0.77053804      0.71196483      0.07627781
C       1.42573904      1.15496558     -1.52441101
C       0.61839234      1.29507140     -2.65692087
C       1.17926901      1.66026536     -3.88506346
C       2.55156357      1.89868251     -3.98998194
Cl      3.17526097      2.34705421     -5.53649326
C       3.36271907      1.77488131     -2.85823995
Cl      5.06647609      2.06083910     -2.90492781
C       2.79821319      1.40858704     -1.63079803
C      -1.78625694     -2.55590888      0.39532687
O      -1.86156149     -2.92444846     -0.77121619
O      -2.46807794     -3.19623747      1.36991350
H      -1.92453543      1.19110483      3.64504487
H      -1.19130506      0.21628562      4.93586895
H      -2.93281735      0.05214659      4.56014892
H      -1.22584588      0.46205066      1.72790721
H       0.01750907     -1.92713994      1.34571896
H       0.14849005     -1.33377056     -1.06230913
H      -1.23326298     -0.22987609     -0.89364835
H      -0.45587683      1.13699813     -2.60600095
H       0.53639208      1.76170948     -4.75690875
H       3.43795250      1.31849248     -0.75488335
H      -2.20900137     -2.90977278      2.28016212
