13
C#CCCC
C       2.86231022      0.68874158      0.49715767
C       1.67647382      0.51127284      0.56287595
C       0.22433457      0.29621117      0.64708055
C      -0.28149199     -0.51830260     -0.54195926
C      -1.78279054     -0.74612308     -0.46393305
H       3.91468383      0.84612739      0.43865195
H      -0.01427787     -0.22355951      1.58236723
H      -0.28719201      1.26533911      0.67854612
H      -0.04391276     -0.00167233     -1.48013301
H       0.22868677     -1.48886227     -0.57734898
H      -2.32446790      0.20514708     -0.46435216
H      -2.12263790     -1.33081110     -1.32450043
H      -2.04971823     -1.29377371      0.44554741
