46
OCC1OC(OCCc2cccc3ccccc23)C(O)C(O)C1O
O      -1.62505321      0.38294365      3.01629575
C      -2.80960666      0.85355074      2.36908264
C      -2.75504756      0.50685461      0.87685001
O      -1.60679253      1.18939053      0.32291853
C      -1.44212536      0.98856686     -1.07805342
O      -1.17635856     -0.38387072     -1.40303900
C       0.19332789     -0.76081357     -1.22572937
C       0.52788578     -1.09063284      0.22965256
C       1.95373832     -1.57673645      0.38218783
C       2.17387376     -2.96684905      0.37739502
C       3.45875252     -3.48374519      0.49425696
C       4.54379279     -2.62021729      0.61286324
C       4.36155154     -1.22921205      0.61710257
C       5.47233731     -0.37639264      0.73743129
C       5.31813428      1.00885593      0.75128074
C       4.04961751      1.56036225      0.63954107
C       2.93564473      0.72605889      0.51351441
C       3.05723038     -0.68433488      0.50052443
C      -2.69037770      1.42533543     -1.86860348
O      -2.55949393      1.13017596     -3.27191931
C      -3.92981999      0.69851671     -1.34025165
O      -5.10385252      1.22533080     -1.98537012
C      -4.06281869      0.89308381      0.16878640
O      -4.39542543      2.26677898      0.42127502
H      -0.88583958      0.80387286      2.53666310
H      -3.67004336      0.38112336      2.85356796
H      -2.85824586      1.93502892      2.53274413
H      -2.57561270     -0.57040494      0.77294852
H      -0.60030738      1.60566076     -1.41499424
H       0.85800789      0.00504311     -1.64378819
H       0.34104910     -1.65880607     -1.83745515
H       0.35665166     -0.23653523      0.88892064
H      -0.17367159     -1.85235299      0.59733487
H       1.33782870     -3.65746525      0.28187800
H       3.61578353     -4.55935009      0.49330195
H       5.54082994     -3.04540899      0.70469091
H       6.47452653     -0.79003742      0.82835879
H       6.18670378      1.65319039      0.85289310
H       3.92248934      2.64070567      0.65342310
H       1.96342022      1.20397427      0.43227619
H      -2.83439253      2.50886683     -1.78068593
H      -2.11797347      0.25668533     -3.32044813
H      -3.88466048     -0.36871685     -1.58941187
H      -4.86963647      1.29169870     -2.93272732
H      -4.89914976      0.29892849      0.55449064
H      -5.11687217      2.47129865     -0.21039053
