23
COC(=O)c1c(C(=O)O)cccc1[N+](=O)[O-]
C       3.11091411      0.60098266     -1.16650622
O       1.71195731      0.36770590     -1.00055576
C       1.37497321      0.00829119      0.25833535
O       2.10386957     -0.17597269      1.21574685
C      -0.06964295     -0.23941735      0.29893519
C      -0.99705297      0.79270012      0.10176064
C      -0.55096413      2.18862324     -0.11617252
O       0.48278545      2.69046649      0.27542956
O      -1.44533849      2.89166399     -0.83282542
C      -2.37500061      0.51054377      0.17162033
C      -2.82802891     -0.78226030      0.44976436
C      -1.91066611     -1.80876102      0.65845734
C      -0.53970367     -1.52702724      0.57721063
N       0.38623523     -2.63286540      0.73900558
O       0.26884170     -3.31679552      1.76369241
O       1.17299673     -2.84858048     -0.19144165
H       3.67601044     -0.31789807     -0.98119024
H       3.28236860      0.91091131     -2.20100732
H       3.44824830      1.40424710     -0.50377345
H      -1.03506950      3.77858174     -0.92497652
H      -3.10739299      1.30439083      0.02755571
H      -3.89643809     -0.98337183      0.50753016
H      -2.26390222     -2.81615844      0.87340497
