39
CCn1cc(C(=O)O)c(=O)c2cnc(N3CCNCC3)nc21
C      -1.56092919     -2.92566685     -0.22213951
C      -1.78934673     -1.88192467     -1.30628514
N      -2.23223830     -0.60853254     -0.72549842
C      -3.56619404     -0.27270761     -0.55772422
C      -4.02463743      0.86591073     -0.01468790
C      -5.48082610      1.08746933      0.09534605
O      -6.31266683      0.27424275     -0.27995790
O      -5.82715736      2.26892766      0.64964990
C      -3.00589676      1.83403546      0.44584614
O      -3.34535519      2.90358736      0.94695188
C      -1.59057444      1.47460467      0.29400453
C      -0.58134482      2.30074237      0.71225270
N       0.72114796      1.98179657      0.58888814
C       1.02912500      0.79957102      0.02877100
N       2.37067600      0.46008384     -0.13765063
C       3.29558655      1.19806055      0.73496362
C       4.76352792      0.82694974      0.42736287
N       5.02361413     -0.62677812      0.44738261
C       4.11442550     -1.26894417     -0.52249242
C       2.61985833     -0.98338459     -0.25484179
N       0.08470999     -0.05746572     -0.40207529
C      -1.21763398      0.27226140     -0.27632915
H      -0.77206391     -2.61854695      0.47180185
H      -1.26450352     -3.87865587     -0.67132947
H      -2.47263719     -3.09301285      0.36096353
H      -0.88592399     -1.75954302     -1.91635114
H      -2.55617023     -2.25567538     -1.99702030
H      -4.25620450     -1.03528997     -0.91796112
H      -5.06305028      2.83833328      0.91039136
H      -0.78143164      3.26534370      1.16974940
H       3.19362751      2.28084606      0.59082378
H       3.08112799      0.96941648      1.78753021
H       5.04771381      1.22629046     -0.55441693
H       5.41761627      1.30922567      1.16224890
H       4.79553066     -0.97678005      1.37800483
H       4.37881419     -0.93519098     -1.53385165
H       4.28342570     -2.35119227     -0.49655666
H       2.31707388     -1.49220134      0.67016354
H       2.04918504     -1.41620613     -1.08592717
