23
Clc1cc(Cl)c(Oc2ccccc2)c(Cl)c1Cl
Cl      5.08809341     -0.51598884      1.53343567
C       3.60719897     -0.15592278      0.71329117
C       2.91291328     -1.23473157      0.15949581
C       1.71140188     -1.02061624     -0.51275351
Cl      0.92788864     -2.38593629     -1.22107877
C       1.18723354      0.27362337     -0.61629856
O       0.01902333      0.50119040     -1.30934673
C      -1.17057491      0.21578036     -0.67052430
C      -2.25047024     -0.05915522     -1.51355198
C      -3.50561798     -0.34961609     -0.97791635
C      -3.68719630     -0.35562407      0.40377437
C      -2.61607598     -0.06619143      1.24856067
C      -1.35796214      0.22406990      0.71455988
C       1.89905334      1.36550270     -0.08897385
Cl      1.25076772      2.96583763     -0.28590942
C       3.11127955      1.15185630      0.58993263
Cl      3.99144081      2.48568315      1.27109450
H       3.31437253     -2.24270764      0.24539531
H      -2.11251404     -0.05369436     -2.59176405
H      -4.34043135     -0.56911027     -1.63835822
H      -4.66514255     -0.57973322      0.82240620
H      -2.76299568     -0.06012363      2.32578818
H      -0.55168586      0.46560785      1.39874138
