22
OC[P+](CO)(CO)CO.[Cl-]
O      -1.50165924      2.10988816     -0.19687644
C      -0.28899342      1.85177358      0.49386613
P       0.15539813      0.18695940      0.14371758
C       1.73966711     -0.10646542      0.84776812
O       2.01920925     -1.48722396      0.67552303
C       0.22956663     -0.03856794     -1.59624370
O       0.84922203     -1.30395407     -1.80474385
C      -1.01260318     -0.90350525      0.87206400
O      -2.29567748     -0.43627947      0.46701164
Cl      0.00000000      0.00000000      0.00000000
H      -2.10257480      1.36128854      0.01428294
H      -0.44733597      2.02333443      1.56197134
H       0.46433251      2.55875191      0.13698344
H       2.52529023      0.47665856      0.35979532
H       1.75771470      0.11459681      1.91804346
H       1.82911175     -1.69029335     -0.26719394
H      -0.76328236     -0.04759731     -2.05384474
H       0.84093811      0.72763980     -2.08020213
H       0.79033716     -1.48216789     -2.76177222
H      -0.88382680     -1.93404302      0.53054157
H      -0.96657795     -0.87879698      1.96400567
H      -2.93825640     -1.10199652      0.77530276
