27
O=C(O)c1ccccc1Nc1ccccc1
O      -1.52090056      2.69961624     -0.10359959
C      -2.36302091      1.86524110     -0.38886759
O      -3.52908254      2.22970635     -0.95375560
C      -2.24499751      0.39772197     -0.17374709
C      -3.36495655     -0.42928203     -0.37696385
C      -3.27923612     -1.80369830     -0.16023698
C      -2.07995183     -2.36041860      0.26828042
C      -0.96284143     -1.54562074      0.46978852
C      -1.01372567     -0.15925887      0.24474145
N       0.13643791      0.64132840      0.43295732
C       1.50127785      0.39260793      0.18576870
C       1.96695495     -0.67519599     -0.58874258
C       3.33737303     -0.89227683     -0.76640896
C       4.26365223     -0.04638730     -0.16230662
C       3.81985919      1.01724546      0.61764416
C       2.44970936      1.23115433      0.79063827
H      -3.45769675      3.20345379     -1.03996912
H      -4.31441477     -0.00890730     -0.70048264
H      -4.14984154     -2.43578885     -0.31648346
H      -2.00984011     -3.42929528      0.45473132
H      -0.04670783     -2.00322913      0.83686594
H      -0.07219061      1.64523853      0.43611828
H       1.27074155     -1.33630917     -1.09578303
H       3.67773880     -1.72089358     -1.38168464
H       5.32814321     -0.21541543     -0.29996311
H       4.53632144      1.67958348      1.09581624
H       2.12119521      2.05907982      1.41471959
