51
COCCNC(=O)c1cccc(Nc2ncc3cc(-c4ccncc4)ccc3n2)c1
C       8.59545642     -2.27439208      0.40422275
O       8.24156779     -1.43994794     -0.69168119
C       8.55062548     -0.05793130     -0.46652070
C       7.49757976      0.62263364      0.40850118
N       6.16911224      0.46903975     -0.15638382
C       5.10240698      1.17884570      0.35118135
O       5.22103149      2.04066584      1.21526967
C       3.75596283      0.82094340     -0.17608914
C       3.58096284      0.24252856     -1.43565378
C       2.29718628     -0.07416455     -1.87355629
C       1.18889997      0.19364308     -1.06216285
C       1.33307343      0.79372519      0.19273430
N       0.26529419      1.07973248      1.04954240
C      -1.11232168      0.89553541      0.97976039
N      -1.79691880      1.38954689      2.02352290
C      -3.13425566      1.23527531      2.00717223
C      -3.82528063      0.60460320      0.98869702
C      -5.22763058      0.44312718      0.97032863
C      -5.86002825     -0.21214483     -0.09496224
C      -7.31947653     -0.38770848     -0.12352619
C      -7.89315633     -1.65481547     -0.28170163
C      -9.27450634     -1.77127547     -0.29944868
N     -10.11709043     -0.72574139     -0.17539127
C      -9.55281553      0.48992824     -0.02689033
C      -8.18371108      0.70588756      0.00658070
C      -5.05018698     -0.69482821     -1.13106305
C      -3.65891706     -0.52393187     -1.09808588
C      -3.02668166      0.12340045     -0.04617343
N      -1.69482246      0.26571185     -0.05169914
C       2.63506271      1.09996661      0.62118193
H       8.00572238     -2.02785644      1.29090506
H       9.66393259     -2.18914398      0.62388571
H       8.38055887     -3.31003150      0.12690363
H       8.56499285      0.42151508     -1.45157240
H       9.55248972      0.04594760     -0.03488643
H       7.72013030      1.68988553      0.51383252
H       7.47106170      0.18356618      1.41092240
H       5.99120531     -0.41183195     -0.62496705
H       4.42314884      0.05375910     -2.09461880
H       2.14989789     -0.52449791     -2.85222408
H       0.20678897     -0.06898321     -1.44402580
H       0.48134780      1.58503579      1.89724084
H      -3.64838172      1.64986087      2.86977423
H      -5.82164123      0.82121526      1.80081728
H      -7.27918285     -2.54462041     -0.37805766
H      -9.75238531     -2.73990622     -0.41578224
H     -10.25166747      1.31648068      0.06575662
H      -7.80373041      1.71625165      0.11862124
H      -5.49383139     -1.20061904     -1.98703500
H      -3.05559961     -0.90574603     -1.91886892
H       2.78872038      1.56186024      1.59515024
