44
Fc1ccc([C@@H]2CCNC[C@H]2COc2ccc3c(c2)OCO3)cc1
F      -3.56778460     -0.77110494      4.67898642
C      -3.25970509     -0.51537816      3.40077825
C      -3.02160627      0.79374870      3.00309798
C      -2.70071748      1.06223172      1.67133751
C      -2.61420597      0.01944093      0.73317848
C      -2.25874398      0.33338859     -0.71316905
C      -3.46681014      0.07130915     -1.62881065
C      -3.12808040      0.36859751     -3.08502949
N      -1.97936573     -0.41842931     -3.52179136
C      -0.78753519     -0.12620412     -2.72224139
C      -1.00909832     -0.42503728     -1.22740270
C       0.24726294     -0.05471513     -0.41630980
O       1.36734262     -0.77917625     -0.93048921
C       2.58031731     -0.55503327     -0.33701851
C       3.64966043     -1.26830055     -0.91624963
C       4.95256763     -1.14613098     -0.42353541
C       5.14963655     -0.30494270      0.64747161
C       4.11030033      0.39188201      1.21727570
C       2.81437807      0.28988123      0.75110624
O       4.51649141      1.16459400      2.26150050
C       5.92849134      0.86780298      2.28575979
O       6.33807495     -0.05962984      1.25970316
C      -2.86443199     -1.29611119      1.15928592
C      -3.18491144     -1.56209533      2.49154796
H      -3.08885390      1.59598486      3.73077599
H      -2.52013329      2.09254309      1.37239611
H      -2.03461522      1.40848118     -0.77967013
H      -4.31589339      0.69376211     -1.31941748
H      -3.79849641     -0.97194273     -1.54299406
H      -2.93271454      1.43891658     -3.22341347
H      -3.99012472      0.11693229     -3.71241255
H      -1.78258020     -0.21755586     -4.50257878
H       0.03219814     -0.74327306     -3.10696921
H      -0.49095825      0.92055942     -2.86664440
H      -1.16161291     -1.50953021     -1.13585707
H       0.10129660     -0.32369543      0.63595720
H       0.43161130      1.02397369     -0.49839545
H       3.45623164     -1.92599901     -1.76111754
H       5.77573206     -1.69384069     -0.86709363
H       2.03313581      0.85685174      1.23971211
H       6.18045058      0.44242044      3.26407835
H       6.48507567      1.80301305      2.15530254
H      -2.81392262     -2.12520918      0.45623092
H      -3.37735332     -2.57733191      2.82312819
