20
COc1ccc2[nH]c(=S)[nH]c2c1
C       3.33513970      0.84933398      0.12707937
O       2.70230781     -0.42434845      0.11361054
C       1.33299085     -0.43615548      0.05821174
C       0.76874632     -1.73634034      0.04777590
C      -0.61542070     -1.93924748     -0.00639664
C      -1.39537147     -0.81150368     -0.04880433
N      -2.78160396     -0.68804914     -0.10618257
C      -3.10076013      0.67435659     -0.13215479
S      -4.61469164      1.32149633     -0.19971985
N      -1.89652640      1.38717306     -0.09015506
C      -0.84664485      0.47086597     -0.03882725
C       0.51060501      0.69544050      0.01404681
H       4.41604102      0.68508293      0.17246973
H       3.04774190      1.42326299      1.01422628
H       3.12093344      1.40598965     -0.79121890
H       1.43234683     -2.59876226      0.08292859
H      -1.03840875     -2.93561069     -0.01401255
H      -3.45185691     -1.44135635     -0.12614737
H      -1.81970199      2.39264025     -0.09665951
H       0.89413391      1.70573162      0.01992986
