30
Nc1ccc(N=Nc2ccccc2)c(N)c1.[Cl-].[H+]
N       5.25838319      1.00330470      0.67343434
C       3.88031414      0.67361483      0.47610799
C       2.91854541      1.66156608      0.31298353
C       1.59722119      1.30855851      0.12456960
C       1.18729619     -0.01688363      0.09149146
N      -0.19400150     -0.31742899     -0.10688509
N      -1.04395913      0.56053450      0.25102849
C      -2.41720893      0.24987002      0.04844154
C      -3.36499204      0.96719173      0.74973567
C      -4.68833373      0.69790771      0.58162693
C      -5.10315082     -0.28544517     -0.28261645
C      -4.18473071     -1.02062784     -0.99836887
C      -2.84340206     -0.74099619     -0.82193791
C       2.13017153     -0.99502759      0.25161225
N       1.73924062     -2.36921904      0.22236071
C       3.44353808     -0.63452869      0.43869178
Cl      0.00000000      0.00000000      0.00000000
H       0.00000000      0.00000000      0.00000000
H       5.61396614      1.88525585      0.26837370
H       5.87357681      0.36007350      1.21378772
H       3.21600196      2.69871769      0.33540966
H       0.82911629      2.06062962     -0.00493822
H      -3.08025068      1.76189080      1.45103500
H      -5.41942957      1.27713991      1.14598047
H      -6.17486004     -0.49434215     -0.41047082
H      -4.48964121     -1.79152108     -1.67703965
H      -2.05352594     -1.28086932     -1.35408601
H       1.06760990     -2.76333316      0.91816112
H       2.09952281     -3.04723412     -0.48828382
H       4.20298211     -1.40879846      0.56738071
