26
CCCCOC(=O)CCC
C      -4.39789218      1.12726449     -0.59339879
C      -3.47748814      0.08631581      0.02345653
C      -2.02468922      0.31211035     -0.38515855
C      -1.09775692     -0.72972699      0.23137469
O       0.23935505     -0.44520626     -0.20092927
C       1.17723710     -1.30439296      0.28428260
O       0.95521631     -2.24984176      1.02806714
C       2.54743749     -0.91753391     -0.20719238
C       3.11503438      0.22538379      0.62386387
C       4.51173847      0.60843793      0.16406208
H      -4.11993287      2.13624290     -0.27237513
H      -4.35514335      1.09020130     -1.68662940
H      -5.43317522      0.94666693     -0.28763849
H      -3.80201710     -0.91232300     -0.29128413
H      -3.56812883      0.12791961      1.11511365
H      -1.92810148      0.28240183     -1.47776341
H      -1.69607962      1.31435208     -0.08259182
H      -1.14717192     -0.67765696      1.32535834
H      -1.38387177     -1.73393845     -0.10268581
H       3.19154472     -1.80247595     -0.14517109
H       2.48379383     -0.65111561     -1.26855802
H       3.14609067     -0.06204199      1.68172201
H       2.45872019      1.10125193      0.55657738
H       4.50486770      0.93437044     -0.88096230
H       4.89958488      1.43048363      0.77374814
H       5.20082785     -0.23714918      0.25617880
