19
O=C(O)COc1ccc(Cl)c(Cl)c1
O       3.77360580     -1.00596162      0.04724427
C       3.31219576      0.11388266     -0.09534920
O       4.14201194      1.17499563     -0.21223651
C       1.85329312      0.52530132     -0.16629033
O       1.01464863     -0.61741205     -0.03958739
C      -0.33562643     -0.41411057     -0.08376317
C      -1.10058801     -1.57601140      0.04635581
C      -2.49567627     -1.51827589      0.01918666
C      -3.13933364     -0.29036694     -0.13928740
Cl     -4.86609535     -0.28219622     -0.16526138
C      -2.37859028      0.87665075     -0.27005666
Cl     -3.10463161      2.43378756     -0.46965102
C      -0.97825761      0.81399726     -0.24223051
H       5.03696818      0.77696456     -0.15104152
H       1.66672177      1.22084993      0.65971509
H       1.69261614      1.00234534     -1.13968316
H      -0.60400425     -2.53686844      0.17027021
H      -3.07092225     -2.43518889      0.12226551
H      -0.41833564      1.73761702     -0.34635666
