24
CN(C)c1cccc(S(=O)(=O)O)c1
C      -1.93304388      0.47436079     -1.76612735
N      -1.78359632      0.72209810     -0.33118265
C      -3.03495035      0.85304096      0.41446072
C      -0.64831827      0.22842659      0.32334971
C      -0.58410268      0.10444452      1.72578303
C       0.55488479     -0.37234182      2.39250130
C       1.68370375     -0.73385546      1.67172279
C       1.65441685     -0.60934725      0.28691410
S       3.09013732     -1.01425683     -0.66264722
O       2.81642554     -2.24179918     -1.37371567
O       4.25347119     -0.85715388      0.18458749
O       3.21022159      0.17686464     -1.74532297
C       0.51536019     -0.12948593     -0.37754901
H      -2.88109522      0.87477966     -2.14274634
H      -1.14703661      0.97793854     -2.33882087
H      -1.91889689     -0.59928171     -1.98423874
H      -3.82976906      1.26883123     -0.21514008
H      -2.92573428      1.54770415      1.25422985
H      -3.37810196     -0.12031624      0.78202530
H      -1.43078551      0.37834979      2.34878334
H       0.55025387     -0.45312542      3.47686033
H       2.56802143     -1.09951450      2.18734377
H       4.03678655      0.66645007     -1.54852548
H       0.56174794     -0.04281083     -1.45937951
