25
COC(CC(=O)O)c1ccccc1
C      -1.77800684     -1.68230476      0.84073979
O      -1.75208932     -0.44786586      0.12288277
C      -0.63717301      0.38806849      0.50722992
C      -0.93799883      1.79574288     -0.00183053
C      -2.08512341      2.39377966      0.76564279
O      -2.01900530      3.45548897      1.36707697
O      -3.22365489      1.66647303      0.70074425
C       0.65703559     -0.11762011     -0.10170253
C       0.71483868     -0.55299077     -1.43517225
C       1.91704647     -0.99997617     -1.98515218
C       3.07567002     -1.01277472     -1.21175135
C       3.03404741     -0.57812901      0.11141586
C       1.83257060     -0.13106338      0.66421428
H      -0.88760814     -2.28111439      0.63038181
H      -2.65705365     -2.24430270      0.51390603
H      -1.86539517     -1.49611838      1.91535658
H      -0.57108520      0.39842450      1.60347310
H      -1.20681652      1.80684419     -1.06488175
H      -0.06862795      2.45118533      0.13015996
H      -3.08531872      0.81237021      0.22759911
H      -0.18172303     -0.55087085     -2.05206235
H       1.94946791     -1.33771440     -3.01789440
H       4.01207310     -1.35976061     -1.64103537
H       3.93969231     -0.58497644      0.71290052
H       1.82423789      0.20920529      1.69775896
