18
Cc1ccc(N)c(Cl)c1O
C       2.65449983     -0.09088202      0.47269261
C       1.16920977     -0.13914026      0.26267603
C       0.42316893     -1.23438924      0.71417465
C      -0.96103786     -1.29045490      0.51155484
C      -1.64125461     -0.24077053     -0.11490891
N      -3.01033118     -0.39207259     -0.40501920
C      -0.88391093      0.83058564     -0.61994564
Cl     -1.66292021      2.12302890     -1.47693188
C       0.50319870      0.88496195     -0.41657954
O       1.24617181      1.93960264     -0.88501261
H       2.93984787      0.84124247      0.97118398
H       2.99662822     -0.91778702      1.10395850
H       3.17415059     -0.16265358     -0.48807329
H       0.91583166     -2.06364987      1.21809485
H      -1.50499185     -2.17035932      0.84684600
H      -3.52177185     -0.94663340      0.27377538
H      -3.46779116      0.49188431     -0.61884010
H       0.63130229      2.53748681     -1.34964566
