42
CCN(CC)CCNC(=O)c1cc(Cl)c(N)cc1OC
C      -2.92453578      1.24687580     -2.37045196
C      -2.82032231     -0.13759006     -1.73590736
N      -2.21457509     -0.13996520     -0.39477389
C      -2.90524003      0.72285082      0.57987297
C      -4.37322668      0.40324700      0.84821300
C      -2.07765829     -1.52282205      0.13187117
C      -0.96607794     -2.34500847     -0.55127667
N       0.32824409     -1.70121118     -0.44035368
C       1.11298272     -1.85174918      0.67954932
O       0.87434424     -2.68234101      1.55117862
C       2.30513879     -0.96006030      0.80962593
C       3.28239432     -1.34404769      1.73993210
C       4.43048277     -0.57075932      1.91932998
Cl      5.59911997     -1.08967561      3.08568695
C       4.65574334      0.58177814      1.14725716
N       5.74855175      1.43510324      1.38416145
C       3.65047566      0.99416426      0.26566622
C       2.48110484      0.23689779      0.09815520
O       1.52939194      0.65083135     -0.80188001
C       1.01056278      1.94698281     -0.47902097
H      -3.65143184      1.87836977     -1.85303886
H      -3.25496420      1.15361504     -3.41002272
H      -1.95614116      1.75727011     -2.37357289
H      -3.81176312     -0.60692285     -1.72515382
H      -2.19908294     -0.73481755     -2.41305477
H      -2.36054697      0.68656194      1.53243105
H      -2.81973037      1.76986540      0.26419436
H      -4.98890358      0.54412232     -0.04519043
H      -4.76109723      1.07291668      1.62400799
H      -4.50823426     -0.62367636      1.20324489
H      -1.82862969     -1.47647680      1.20000105
H      -3.02753880     -2.06547700      0.05142369
H      -0.91428347     -3.33804676     -0.09016747
H      -1.16885861     -2.48929344     -1.61626598
H       0.46244805     -0.85809553     -0.99022501
H       3.14566596     -2.25051491      2.32723705
H       6.03873117      1.98378683      0.58117302
H       6.52719989      0.95903203      1.83726254
H       3.78395027      1.91025050     -0.30252956
H       0.88738685      2.08974884      0.60302692
H       1.65337958      2.72839303     -0.90000991
H       0.02554342      2.03588760     -0.94310740
