21
C/C=C/CCCC
C       3.81856476      0.44832451     -0.41572788
C       2.48146777     -0.18422450     -0.62622899
C       1.50349416     -0.19356531      0.29259542
C       0.16124489     -0.83503435      0.08197004
C      -0.96494594      0.19811030      0.15312598
C      -2.33183472     -0.45672105     -0.04792300
C      -3.45516377      0.56541953      0.02234504
H       3.90992639      0.90402308      0.57525862
H       3.98427239      1.22722119     -1.16622421
H       4.60674517     -0.30354925     -0.51978805
H       2.32075033     -0.65657532     -1.59294191
H       1.66882201      0.27616502      1.26042484
H       0.12619040     -1.35304737     -0.88422480
H       0.01628795     -1.59734925      0.85679971
H      -0.81093084      0.96753383     -0.61415340
H      -0.94255708      0.70670507      1.12538445
H      -2.49420120     -1.22272542      0.71926614
H      -2.36425973     -0.95996089     -1.02127194
H      -4.42294865      0.07565107     -0.12404690
H      -3.33995798      1.32892307     -0.75362044
H      -3.47096631      1.06467603      0.99642127
