37
CCCCCN(C)N=Nc1ccc(C(=O)O)cc1
C      -5.22236056     -2.48830596      0.74488283
C      -3.91976293     -1.99543873      0.13514110
C      -3.66676285     -0.52518543      0.46765426
C      -2.35589536     -0.03331938     -0.14772387
C      -2.10296789      1.43826512      0.18881590
N      -0.90118705      1.97348148     -0.45254633
C      -0.80909927      3.42670549     -0.55254592
N       0.23971213      1.24892698     -0.18896895
N       1.28217648      1.78305047     -0.61596466
C       2.39064383      0.97064382     -0.32643821
C       2.61487228     -0.22596277     -1.02038936
C       3.73731828     -1.01316323     -0.74289809
C       4.65550604     -0.60269043      0.23097129
C       5.86122164     -1.39986123      0.56309057
O       6.70241230     -1.10768559      1.39264220
O       5.95707003     -2.52841054     -0.16152084
C       4.44344047      0.59844112      0.91922948
C       3.31893903      1.38038722      0.63654892
H      -6.07452700     -1.91508473      0.36598412
H      -5.38330624     -3.54159887      0.49472103
H      -5.20419119     -2.39710719      1.83561118
H      -3.95799647     -2.13017046     -0.95209899
H      -3.09257759     -2.60977161      0.50940591
H      -4.49944145      0.08385284      0.09515820
H      -3.63265360     -0.39490460      1.55620226
H      -2.38664725     -0.15944050     -1.23716770
H      -1.52767085     -0.65170861      0.21895245
H      -2.00465343      1.58540949      1.27076341
H      -2.95760206      2.03149516     -0.15720598
H      -1.75964989      3.82133194     -0.92372723
H      -0.02957574      3.71824820     -1.26167434
H      -0.59969569      3.84270629      0.43701265
H       1.90473167     -0.54368320     -1.78041401
H       3.88403106     -1.93974379     -1.29239528
H       6.78462529     -2.94403141      0.15976781
H       5.15145855      0.93096824      1.67597648
H       3.16006529      2.31335444      1.17152162
