15
Cc1c(Cl)cccc1Cl
C      -2.18284775      0.31423693     -0.09285842
C      -0.69249676      0.10096739     -0.05619883
C       0.19756778      1.18614911      0.05265030
Cl     -0.35724812      2.82306445      0.14203247
C       1.58235055      0.98533296      0.10803862
C       2.10738174     -0.30259276      0.07328247
C       1.24501015     -1.39151159     -0.00539005
C      -0.14022602     -1.19389072     -0.06093089
Cl     -1.12882416     -2.61332275     -0.11740496
H      -2.44976941      1.25332532     -0.58673849
H      -2.58342888      0.32246636      0.92557387
H      -2.69341838     -0.46343401     -0.66870369
H       2.25721079      1.83504862      0.18514757
H       3.18238921     -0.45731883      0.11838843
H       1.65634926     -2.39852048     -0.01688840
