52
CC(C)C1=CC2=CCC3C(C)(C(=O)O)CCCC3(C)C2CC1
C       4.58337470     -1.95775708     -0.86407378
C       4.29193730     -1.02124605      0.31518185
C       5.33246722      0.10168554      0.35259659
C       2.87975643     -0.44641573      0.34136232
C       2.12947249     -0.24070305     -0.75816639
C       0.76182213      0.25261270     -0.71836924
C       0.12933940      0.57885969     -1.85688085
C      -1.28516852      1.06496600     -1.93144826
C      -2.11131245      0.87891864     -0.63402543
C      -2.95252583     -0.46593205     -0.60995984
C      -2.12849719     -1.71994707     -0.96001303
C      -4.09160513     -0.34603269     -1.65644337
O      -4.28308360      0.62713376     -2.37183007
O      -4.91386055     -1.41878920     -1.72925905
C      -3.64277589     -0.63201612      0.76584694
C      -2.71849639     -0.43273308      1.95621363
C      -2.07034629      0.94226300      1.91561987
C      -1.23439231      1.19788290      0.63628628
C      -0.90116004      2.71916335      0.62962165
C       0.09625951      0.35504177      0.64574543
C       1.13978382      0.83294925      1.67744217
C       2.34608943     -0.11015440      1.71709206
H       5.55548325     -2.44571028     -0.73059119
H       3.82617537     -2.74587410     -0.93837326
H       4.61767675     -1.41966412     -1.81746067
H       4.41476284     -1.62942762      1.22187597
H       6.34641844     -0.31142943      0.38960852
H       5.20522067      0.73838778      1.23436401
H       5.26193307      0.74015967     -0.53529957
H       2.53937030     -0.44686714     -1.74383739
H       0.64674641      0.50742887     -2.81166348
H      -1.77306797      0.57520764     -2.78061341
H      -1.25374850      2.13209438     -2.18656255
H      -2.87382634      1.67407255     -0.66118927
H      -2.72905517     -2.63363158     -0.88775006
H      -1.28194538     -1.87221837     -0.29214375
H      -1.75511922     -1.68440920     -1.98864844
H      -4.71179529     -2.14719233     -1.11612915
H      -4.47141662      0.08568751      0.84595127
H      -4.10397465     -1.62372104      0.85243883
H      -1.96583199     -1.22603227      1.99598209
H      -3.30413169     -0.52232443      2.87921154
H      -1.46220295      1.07723095      2.81646923
H      -2.86815834      1.69520134      1.98327484
H      -0.19821505      2.98790847     -0.16491134
H      -0.46313428      3.03848829      1.58183969
H      -1.80608228      3.32116351      0.48587478
H      -0.15331863     -0.66997816      0.93913997
H       0.70933856      0.88666084      2.68238533
H       1.49857826      1.83960226      1.42706228
H       3.12690098      0.36321300      2.32321469
H       2.06934126     -1.04377707      2.22251078
