33
O=C(Nc1ccc(Cl)cc1)c1cc2ccccc2cc1O
O       1.38552989      1.81891437     -1.08926149
C       0.88224435      0.83108264     -0.56136077
N       1.55334204     -0.19772106      0.07406198
C       2.93530256     -0.27344509      0.34828602
C       3.41337340     -1.47100935      0.89866615
C       4.76902210     -1.62446428      1.20613834
C       5.65403294     -0.57740947      0.96761726
Cl      7.32136763     -0.76238502      1.34568316
C       5.19254191      0.61884751      0.42690367
C       3.83512465      0.77044927      0.11962533
C      -0.59686325      0.67659114     -0.66774358
C      -1.33220107     -0.00769628      0.31213942
C      -2.72408339     -0.16599174      0.18767176
C      -3.47105746     -0.85565381      1.15678484
C      -4.85162186     -1.00881191      1.01828392
C      -5.50384789     -0.47361961     -0.08830787
C      -4.77800518      0.21876746     -1.05828805
C      -3.38943364      0.38217215     -0.93412676
C      -2.65139217      1.08822393     -1.89500857
C      -1.27398235      1.24460850     -1.75420437
O      -0.64479139      1.97416917     -2.72869780
H       1.02121712     -1.02982436      0.29277830
H       2.74197147     -2.30351471      1.09292475
H       5.12492513     -2.56003386      1.62911490
H       5.87798166      1.44164432      0.24087109
H       3.51412806      1.72225686     -0.29219434
H      -0.83739910     -0.39993420      1.19684655
H      -2.98455018     -1.28140019      2.03166382
H      -5.41807239     -1.54503090      1.77557270
H      -6.57914404     -0.59118409     -0.19667603
H      -5.30657193      0.63451606     -1.91382826
H      -3.14464251      1.53168503     -2.75713905
H       0.26555488      2.17520152     -2.41362900
