18
CCCCCO
C      -2.74984894     -0.22194377     -0.23259977
C      -1.43565469     -0.09407425      0.52111422
C      -0.24949845      0.01780258     -0.43625089
C       1.06838055      0.14613783      0.32450815
C       2.25535158      0.25809067     -0.62326016
O       3.45725020      0.39344714      0.12319855
H      -2.75385463     -1.11513889     -0.86546924
H      -2.92356469      0.65144625     -0.86926969
H      -3.58433402     -0.30059507      0.47121959
H      -1.30807542     -0.96694785      1.17191390
H      -1.47681099      0.78990537      1.16811619
H      -0.21517779     -0.86681340     -1.08381320
H      -0.38417415      0.88989114     -1.08769427
H       1.20983814     -0.71822906      0.98525614
H       1.04472795      1.02481978      0.98107647
H       2.15814019      1.13743186     -1.26749653
H       2.34108770     -0.62723084     -1.26149970
H       3.54621746     -0.39799949      0.68111214
