47
CO[C@@]1(NC(=O)CSCC#N)C(=O)N2C(C(=O)[O-])=C(CSc3nnnn3C)CS[C@@H]21.[Na+]
C      -3.35028022      1.78380206      1.96408810
O      -2.79159577      1.58756885      0.67345682
C      -1.98849943      0.38892861      0.49220278
N      -2.77020680     -0.87809131      0.60425480
C      -3.74402952     -1.33289848     -0.23965855
O      -4.15969268     -2.48106062     -0.07040813
C      -4.28254541     -0.39159182     -1.31135810
S      -5.92475519     -0.89004713     -1.95977111
C      -6.87841656     -1.03219376     -0.40943302
C      -6.87944179      0.18154379      0.41801281
N      -6.88459247      1.13750627      1.07800652
C      -1.03652170      0.43612679     -0.81049325
O      -1.19282863      0.61703383     -1.99547141
N       0.01145122      0.08619029     -0.03562659
C       1.33879834     -0.16405452     -0.18869895
C       2.01431959     -0.02329599     -1.58584907
O       2.11080809     -1.09782413     -2.23992868
O       2.50152115      1.12132668     -1.81443355
C       2.09162427     -0.55376329      0.87288122
C       3.57579927     -0.83574687      0.73446148
S       4.52466271      0.59062276      1.34450934
C       6.05074918      0.26516407      0.61342256
N       7.10111684     -0.24629509      1.21578945
N       8.08936471     -0.29891490      0.26127867
N       7.65388849      0.15859420     -0.90479579
N       6.37292111      0.52716677     -0.68745776
C       5.58875141      1.09139421     -1.75011831
C       1.55101950     -0.78550071      2.27037149
S      -0.25960583     -0.99315838      2.37242758
C      -0.58870355      0.38912075      1.23824500
Na      0.00000000      0.00000000      0.00000000
H      -4.02920377      0.96452773      2.21637826
H      -2.55717712      1.85491252      2.71461568
H      -3.91496528      2.71975852      1.95823792
H      -2.39284653     -1.60615604      1.20474165
H      -4.37061169      0.62963766     -0.93916052
H      -3.58780722     -0.39778954     -2.15333469
H      -7.90998464     -1.25743859     -0.70497068
H      -6.53751397     -1.89516406      0.16797806
H       3.86406330     -1.06587540     -0.29362280
H       3.85030586     -1.72588626      1.31369802
H       5.00514664      0.29093723     -2.20727912
H       4.95059608      1.88270895     -1.35053801
H       6.26046279      1.52670048     -2.49569027
H       1.98368472     -1.69870105      2.69270304
H       1.83537025      0.04905477      2.91847059
H      -0.29459974      1.37112012      1.63052931
