25
O=[N+]([O-])c1ccc2c(c1)Cc1ccccc1-2
O       5.10156158     -1.09949316      0.47397215
N       4.42593890     -0.07231783      0.31744190
O       4.89513632      1.07296136      0.24919593
C       2.96859216     -0.22188035      0.20495012
C       2.39718369     -1.51178349      0.27799105
C       1.01094210     -1.67861307      0.17329042
C       0.22051228     -0.55376704     -0.00251088
C       0.80228789      0.73275096     -0.07434487
C       2.17204641      0.91915395      0.02706997
C      -0.27205779      1.78566818     -0.26799577
C      -1.53183488      0.94534294     -0.29760573
C      -2.84012742      1.37261062     -0.45209243
C      -3.84881819      0.40736723     -0.44797509
C      -3.54040254     -0.95480094     -0.29149571
C      -2.21628585     -1.37801256     -0.13601458
C      -1.21487984     -0.42168483     -0.13991432
H       3.02163537     -2.39292894      0.41618092
H       0.57336382     -2.67049499      0.22964961
H       2.59780372      1.91659867     -0.03084456
H      -0.28924591      2.47997115      0.57708019
H      -0.13304337      2.30913054     -1.21834861
H      -3.07957762      2.42388641     -0.57296554
H      -4.88644484      0.71124414     -0.56713162
H      -4.34318548     -1.68873935     -0.29146306
H      -1.99110052     -2.43216960     -0.01613372
