57
CCCCOC(=O)CC(O)(CC(=O)OCCCC)C(=O)OCCCC
C      -4.16569318     -4.24035469     -1.71824782
C      -4.27618554     -4.35618742     -0.20727989
C      -5.08607144     -3.22334291      0.43383807
C      -4.46695987     -1.83563826      0.27629313
O      -3.14120126     -1.84871572      0.82190554
C      -2.54691139     -0.62882755      0.91013934
O      -3.06009391      0.43555187      0.59278827
C      -1.15971344     -0.77528869      1.48475310
C      -0.38318090      0.54838466      1.41694250
O      -1.05800734      1.49877259      2.26209022
C       1.02779436      0.43057637      2.00242538
C       1.91972844     -0.50306976      1.22958383
O       1.82603201     -1.72226403      1.27140818
O       2.81442723      0.20098313      0.48601339
C       3.65717116     -0.57881027     -0.37641262
C       4.87285722     -1.09380988      0.38937745
C       5.82278092     -1.86484126     -0.52448881
C       7.02223702     -2.40007481      0.24037622
C      -0.27023455      1.01466256     -0.05350409
O       0.02878111      0.28067350     -0.98838760
O      -0.55470367      2.34089222     -0.16149019
C      -0.51157887      2.85449157     -1.49777715
C      -0.97829534      4.30845279     -1.48574943
C      -0.06060761      5.20605001     -0.65580015
C      -0.52845285      6.65563259     -0.68139235
H      -5.15590495     -4.18666796     -2.18189149
H      -3.64981623     -5.11543985     -2.12438780
H      -3.59790096     -3.35486138     -2.01205331
H      -3.27087160     -4.39903345      0.22769572
H      -4.76123908     -5.30890274      0.03450390
H      -5.16965134     -3.44273555      1.50622849
H      -6.10391369     -3.21462847      0.02648780
H      -4.42190548     -1.54373133     -0.77857651
H      -5.08466886     -1.10909639      0.81717192
H      -0.65493483     -1.56097144      0.91335789
H      -1.27165931     -1.09512321      2.52663638
H      -1.86873638      1.76974410      1.78101915
H       0.99581103      0.08640973      3.04471092
H       1.50122590      1.42055575      2.05190379
H       3.09086996     -1.39573030     -0.83856663
H       3.97697711      0.08552871     -1.18694996
H       4.54636242     -1.73729724      1.21502559
H       5.39249059     -0.24836832      0.85674242
H       6.17336876     -1.21230164     -1.33314229
H       5.29151903     -2.70340578     -0.99083256
H       6.70768072     -3.07668204      1.04100593
H       7.68304753     -2.95724348     -0.43243423
H       7.59849479     -1.58384116      0.68601353
H       0.51197038      2.78650089     -1.88369517
H      -1.18082966      2.26832138     -2.13744933
H      -1.99112634      4.35738041     -1.06828167
H      -1.02523820      4.67879968     -2.51652034
H      -0.03464025      4.86016004      0.38433264
H       0.96311435      5.15129647     -1.04198029
H      -1.54978914      6.74283634     -0.29488110
H      -0.50948104      7.05847197     -1.69964831
H       0.12545642      7.27615764     -0.05894961
