34
O=C(O)C(CCBr)(c1ccccc1)c1ccccc1
O      -0.57227326      1.41854494     -2.80521018
C      -0.22561608      0.49110434     -2.08653574
O       0.14007618     -0.67255988     -2.66998277
C      -0.13204407      0.50519810     -0.53536718
C      -0.73084973      1.87499004     -0.04722805
C      -2.24064150      2.02810517     -0.22822360
Br     -2.77463554      3.83026740      0.31075158
C      -0.96094603     -0.61353848      0.15973767
C      -1.92534894     -1.37917988     -0.51989969
C      -2.67807801     -2.34853453      0.14994458
C      -2.49119680     -2.56614180      1.51170392
C      -1.55379888     -1.81224737      2.20936815
C      -0.80089749     -0.84334907      1.54318040
C       1.38649087      0.38311669     -0.18501186
C       2.18275170      1.48976231      0.16156473
C       3.54327459      1.33989422      0.45153650
C       4.14095686      0.08504081      0.39306376
C       3.38096057     -1.02342461      0.03869765
C       2.02271852     -0.87547682     -0.25140425
H       0.09371722     -0.48344263     -3.63036562
H      -0.49589540      2.02579880      1.01628284
H      -0.24175576      2.70068625     -0.58266556
H      -2.56584666      1.91587952     -1.26439117
H      -2.81615118      1.35769559      0.41415526
H      -2.11957791     -1.23951023     -1.58036874
H      -3.41483776     -2.93378251     -0.39508315
H      -3.07774721     -3.32075616      2.02897630
H      -1.40655338     -1.97600772      3.27387621
H      -0.07742030     -0.26668940      2.11828905
H       1.77505524      2.49555509      0.21335950
H       4.13751293      2.20994928      0.72053294
H       5.19805508     -0.02730083      0.61795753
H       3.84214411     -2.00609546     -0.01615181
H       1.45839802     -1.76355117     -0.53508919
