38
COC(=O)C(C)Oc1ccc(Oc2ncc(C(F)(F)F)cc2Cl)cc1
C      -5.48818949      2.48349983     -0.89802088
O      -4.85652987      1.64879069      0.07410719
C      -4.34404646      0.48901482     -0.43983560
O      -4.39554063      0.17553058     -1.62148010
C      -3.68893822     -0.32842131      0.68015836
C      -4.78918157     -0.89619868      1.57418887
O      -2.93959401     -1.44646006      0.20915920
C      -1.66028313     -1.23840868     -0.22559813
C      -0.93909876     -2.41056707     -0.47670503
C       0.38218319     -2.35377281     -0.92367848
C       0.99110881     -1.11638757     -1.11068112
O       2.27062215     -1.09556622     -1.60634265
C       3.25596678     -0.52902421     -0.80369658
N       3.00712581     -0.32325325      0.51638611
C       4.00670228      0.19773456      1.26313144
C       5.26063193      0.51970506      0.76297411
C       6.29724717      1.11563591      1.66418717
F       7.56865895      0.91092248      1.22344380
F       6.15594949      2.46249804      1.79066316
F       6.25510547      0.61274756      2.92799416
C       5.49211351      0.29966415     -0.60050660
C       4.48191099     -0.23832123     -1.39726934
Cl      4.79230628     -0.51090322     -3.06900204
C       0.27209028      0.05983187     -0.89589014
C      -1.05165905     -0.00136127     -0.44635258
H      -6.33418365      1.96365904     -1.35842187
H      -4.76644703      2.80113411     -1.65702128
H      -5.86586739      3.37287445     -0.38608064
H      -3.05536606      0.32746289      1.29007627
H      -5.39572992     -0.10404164      2.02424369
H      -4.35646172     -1.50260770      2.37730754
H      -5.45599861     -1.55252885      1.00303774
H      -1.41282856     -3.37731540     -0.32465851
H       0.92994924     -3.27012811     -1.12117992
H       3.75618416      0.34950419      2.31196319
H       6.45883566      0.54382226     -1.03754053
H       0.73553862      1.02494431     -1.07782658
H      -1.57428665      0.93629049     -0.29697258
