53
CN(C)C1C(O)=C(C(N)=O)C(=O)C2(O)C(O)=C3C(=O)c4c(O)ccc(Cl)c4C(O)C3CC12
C      -3.56444019     -2.26053649     -1.37157534
N      -2.99315851     -2.42538512     -0.03795180
C      -3.95022118     -3.09730484      0.84208716
C      -2.41011752     -1.19171876      0.54964732
C      -3.33117768      0.02104000      0.71149656
O      -4.51387717     -0.27599615      1.38976280
C      -3.02237220      1.28223275      0.33438803
C      -3.98457795      2.39227943      0.60611416
N      -3.59982892      3.64829889      0.26812488
O      -5.08398337      2.19076332      1.11873921
C      -1.69904389      1.53380237     -0.30223333
O      -1.20789842      2.66475108     -0.25255349
C      -1.03634212      0.34831229     -1.02620152
O      -1.80020865      0.09726319     -2.20895344
C       0.36634464      0.73350419     -1.48224641
O       0.38368826      1.48278323     -2.65533350
C       1.48540624      0.32479537     -0.84930852
C       2.82762715      0.72546712     -1.35824060
O       2.95738621      1.27255951     -2.45358959
C       4.02289883      0.43497249     -0.52462150
C       5.30405119      0.61116393     -1.07462261
O       5.52402773      1.03010540     -2.35892475
C       6.44326168      0.36249007     -0.31755699
C       6.31504678     -0.04497356      1.00664104
C       5.04666870     -0.21137096      1.56999801
Cl      4.97801901     -0.67018087      3.23515753
C       3.88116717      0.00842437      0.81217499
C       2.50444320     -0.14620884      1.40796374
O       2.12398301      1.09666268      1.98899892
C       1.46604095     -0.58017535      0.35469173
C       0.06237253     -0.71604810      0.97647949
C      -1.02705409     -0.88712871     -0.10817637
H      -4.03501460     -3.19259141     -1.70787888
H      -4.32342400     -1.47280602     -1.41543110
H      -2.78507480     -2.05745878     -2.10830657
H      -3.55873273     -3.19595237      1.86046747
H      -4.12469989     -4.11931275      0.48532588
H      -4.92285528     -2.59819226      0.88380923
H      -2.17264564     -1.47478931      1.58605482
H      -5.07493380      0.53154959      1.44518062
H      -4.20027356      4.42460770      0.50797319
H      -2.64641242      3.84617122     -0.03397382
H      -1.43488799      0.70809741     -2.88319170
H       1.32177420      1.66927087     -2.88908145
H       4.65890332      1.26274353     -2.76372457
H       7.42854867      0.49985015     -0.75672211
H       7.21120168     -0.22131143      1.59781841
H       2.49680655     -0.90543485      2.19769618
H       2.77995150      1.31512515      2.67578674
H       1.75698239     -1.57773805     -0.00934182
H      -0.17615989      0.15246659      1.60304318
H       0.06556055     -1.58784657      1.64364501
H      -0.73274566     -1.76109234     -0.70952451
