41
CCOC(=O)NNc1ccc(N(CC)CC(C)O)nn1
C       6.02071233     -1.65046653     -1.55853096
C       6.41203709     -0.47231048     -0.68624696
O       5.34574139      0.48724299     -0.64091629
C       4.39840511      0.26644950      0.30414891
O       4.39189945     -0.65398508      1.11059695
N       3.44652269      1.25726525      0.24266454
N       2.55593025      1.37661831      1.33685002
C       1.20678039      1.18656832      0.96069749
C       0.62694809      1.91136169     -0.06778244
C      -0.71978035      1.70965419     -0.37365313
C      -1.47393174      0.80082067      0.36036652
N      -2.83072149      0.58441081      0.01757261
C      -3.65795986      1.78084683      0.26218079
C      -4.73327794      1.89135163     -0.81063210
C      -3.38194674     -0.66659771      0.60843199
C      -2.88520296     -1.89484449     -0.18298714
C      -3.54008925     -3.17744913      0.30269420
O      -3.21229715     -1.71618638     -1.56780788
N      -0.87366516      0.11602398      1.35392096
N       0.46078867      0.31810693      1.66569626
H       5.15460435     -2.17600598     -1.14415751
H       6.84905679     -2.35894522     -1.64769887
H       5.73748787     -1.31000877     -2.55993308
H       6.70133004     -0.79605703      0.32022591
H       7.27945868      0.03479495     -1.12142660
H       3.70400789      2.11293049     -0.23407703
H       2.73797438      0.64724882      2.04163104
H       1.20594724      2.63070625     -0.63441734
H      -1.16874050      2.25366931     -1.19805653
H      -3.07440949      2.70951254      0.24147755
H      -4.12128751      1.72799858      1.25555030
H      -5.33823771      2.78909193     -0.64944459
H      -5.40372406      1.02651791     -0.80238126
H      -4.28346396      1.95589487     -1.80710479
H      -4.47525389     -0.63478088      0.51761958
H      -3.16467283     -0.75399342      1.68033722
H      -1.79705778     -1.99556419     -0.11610907
H      -4.62787046     -3.13504936      0.17957422
H      -3.31202787     -3.36522659      1.35613644
H      -3.19131093     -4.03110026     -0.28840827
H      -2.96870306     -0.78651524     -1.75139602
