27
CCCCC(NC(C)=O)C(=O)O
C      -3.58494457      0.08458806      1.03606194
C      -3.21014416      0.10387582     -0.43778565
C      -1.85836671     -0.55200890     -0.73252840
C      -0.67500031      0.19937518     -0.11230733
C       0.68496997     -0.34861572     -0.56635718
N       1.72935242      0.63008376     -0.23471905
C       2.85270156      0.73516825     -1.02463954
C       3.92960762      1.61147872     -0.44386598
O       2.98501022      0.16422782     -2.10137578
C       0.98511711     -1.68709586      0.12608111
O       0.41152964     -2.74824056     -0.06404015
O       1.93346206     -1.60729507      1.08982026
H      -3.56155482     -0.93462948      1.43441717
H      -4.59772886      0.47779339      1.17092976
H      -2.90771720      0.70480242      1.63041978
H      -3.21092324      1.13811922     -0.80107149
H      -3.98483625     -0.42987637     -1.00123437
H      -1.72836975     -0.59086688     -1.82103407
H      -1.87920079     -1.58819101     -0.37794788
H      -0.73935142      0.16220928      0.98208146
H      -0.74804901      1.25755890     -0.39596481
H       0.69871635     -0.52112690     -1.64807181
H       1.87457246      0.78372235      0.75615968
H       4.73086198      0.98077084     -0.05031058
H       4.32325795      2.26303394     -1.22890128
H       3.54224994      2.24244858      0.36112297
H       2.00477784     -2.53130978      1.41176894
