49
O=C(Cc1cc2cccnn2c1-c1cccc(C(F)(F)F)c1)N1CCC[C@@H]1CO
O       2.18746205      2.62808403     -0.74522656
C       1.64337920      1.74090931     -0.08287197
C       0.12354313      1.66686560      0.01524900
C      -0.48871778      0.92716781     -1.13840079
C      -0.21761139      1.17118285     -2.51614154
C      -0.96174944      0.28453272     -3.25762677
C      -1.09740699      0.05655201     -4.64605796
C      -1.92624217     -0.90397638     -5.06845338
C      -2.64537636     -1.67033175     -4.02764397
N      -2.55454545     -1.50436338     -2.74761045
N      -1.69446578     -0.50217539     -2.38902127
C      -1.42618668     -0.10548761     -1.08616300
C      -2.07348799     -0.71610805      0.07857390
C      -1.91144610     -2.07800633      0.35615646
C      -2.50855620     -2.64751551      1.48150840
C      -3.27584655     -1.85971985      2.33999927
C      -3.45994145     -0.49474867      2.07675152
C      -4.27467087      0.37585501      2.99886128
F      -3.49354800      1.21662173      3.73270373
F      -5.01405107     -0.32680867      3.90204799
F      -5.15737223      1.17185628      2.33365068
C      -2.84838178      0.06765308      0.94328397
N       2.38295099      0.79837245      0.60856970
C       1.85996345     -0.43818063      1.17441682
C       3.02925882     -1.40865484      1.11218868
C       4.23116720     -0.50042058      1.31597235
C       3.85191389      0.76287650      0.52961245
C       4.54239465      2.01537646      1.09164410
O       4.14703073      2.25904564      2.44233366
H      -0.25711934      2.69607468      0.02512015
H      -0.16245312      1.23635212      0.97970488
H       0.46204537      1.91622464     -2.91523485
H      -0.53391325      0.66098821     -5.34963470
H      -2.09005502     -1.14244885     -6.10981055
H      -3.31713542     -2.45618707     -4.41080565
H      -1.31838628     -2.70460026     -0.30816441
H      -2.37745267     -3.70778760      1.68556516
H      -3.73693882     -2.31878108      3.21380876
H      -2.99013005      1.12659096      0.72776558
H       1.56812031     -0.23071400      2.20952618
H       0.99746207     -0.81341269      0.62205227
H       2.96022758     -2.20416539      1.85910141
H       3.08052097     -1.87279247      0.11957462
H       4.34862945     -0.29186836      2.38559430
H       5.16251449     -0.94798251      0.95611503
H       4.11952642      0.63968536     -0.52763445
H       5.62946739      1.88468702      1.07977046
H       4.31003576      2.91073310      0.50845038
H       3.17557432      2.33184449      2.42082912
