20
O=C([O-])CC(O)(CC(=O)O)C(=O)[O-].[Co+2]
O      -1.76383208      1.92836502     -0.84840549
C      -2.18646939      1.02795481     -0.08592936
O      -3.56825396      0.71493733     -0.21793766
C      -1.38504592      0.30474142      0.89003217
C      -0.13511628     -0.35933040      0.39168147
O       0.43433664     -0.99435786      1.53151575
C       0.81390638      0.67606800     -0.13002221
C       2.07632381      0.09211544     -0.63254969
O       2.16396498     -0.23446922     -1.82842666
O       3.13978515     -0.08986717      0.20872452
C      -0.55072598     -1.35986741     -0.60703288
O      -0.35191919     -2.59815457     -0.32215581
O      -1.13101105     -1.03101667     -1.80657729
Co      0.00000000      0.00000000      0.00000000
H      -2.00740410     -0.48950016      1.36512014
H      -1.05237918      0.98058565      1.74601617
H       0.84137431     -1.87405410      1.26050290
H       0.96332129      1.46407178      0.61544461
H       0.30090329      1.15892969     -1.01127642
H       3.39824129      0.68284842      0.81088677
