14
O=[N+]([O-])c1cc(Cl)c(Cl)c(Cl)c1Cl
O       2.94850209     -0.22519947      1.02514006
N       2.36356081      0.22169942      0.03243340
O       2.88673023      0.72488252     -0.96778857
C       0.92767774      0.09220799      0.01520602
C       0.40033617     -1.08134459     -0.52795472
C      -0.98308728     -1.24329077     -0.56228318
Cl     -1.58133610     -2.71483542     -1.24532292
C      -1.83027235     -0.24026889     -0.05781713
Cl     -3.55399913     -0.46280495     -0.11048609
C      -1.27385149      0.93918381      0.48725713
Cl     -2.31791718      2.18456542      1.11337601
C       0.12276709      1.11198927      0.52635272
Cl      0.83246067      2.54972967      1.18981406
H       1.05842873     -1.85651402     -0.91792680
