16
Nc1ccccc1[N+](=O)[O-]
N       1.51735167     -1.63961669      0.03684925
C       0.44321134     -0.73903136      0.15241465
C      -0.80736010     -1.25563426      0.52381002
C      -1.95485163     -0.45481426      0.53144163
C      -1.88553899      0.87563477      0.12731166
C      -0.66946329      1.40446977     -0.29890967
C       0.48057848      0.59447962     -0.30180343
N       1.73211224      1.19374952     -0.76759814
O       2.79451292      0.77782583     -0.27701633
O       1.65538077      2.10160567     -1.60926981
H       1.47740003     -2.42690335      0.67758113
H       2.43411476     -1.18359119      0.06026744
H      -0.90123700     -2.30156029      0.80939433
H      -2.90768318     -0.88000231      0.83936651
H      -2.78045488      1.49363677      0.12799469
H      -0.62807314      2.43975176     -0.63183393
