11
CC1CN1
C       1.39228583      0.04928072     -0.10980644
C       0.00931049      0.08198555      0.44208481
C      -1.13101535     -0.54202596     -0.31778894
N      -0.99648440      0.90951701     -0.21394935
H       1.97446269      0.89032676      0.28004785
H       1.40550281      0.10425375     -1.20367796
H       1.89281571     -0.87708288      0.18903903
H      -0.00927204      0.05389391      1.52488186
H      -1.94085529     -0.99607570      0.23892529
H      -0.94032232     -0.96393564     -1.29677884
H      -1.65642813      1.28986248      0.46702269
