16
Cc1nc2ncncc2[nH]1
C       2.90263876      0.06084267      0.15654132
C       1.42289272      0.13445326      0.17445896
N       0.68236845      0.94392350      0.90505826
C      -0.61383590      0.64593516      0.58221118
N      -1.70700192      1.23716474      1.09686139
C      -2.84562701      0.74063955      0.59399532
N      -2.99476031     -0.23900594     -0.32610950
C      -1.88194976     -0.81480139     -0.82566910
C      -0.66783681     -0.36297007     -0.36195340
N       0.63759163     -0.67766205     -0.61102761
H       3.28668631      0.27685414     -0.84514345
H       3.24206940     -0.93618169      0.45361896
H       3.33296898      0.78874077      0.85117679
H      -3.76408958      1.17943025      0.97227093
H      -2.00666701     -1.59797563     -1.56143195
H       0.97455205     -1.37938729     -1.25485811
