21
Cc1ccc(C)c(C(=O)O)c1
C       3.15285865      0.30543476     -0.15845996
C       1.70567612     -0.08048824     -0.07556390
C       1.32289453     -1.42006293     -0.15034630
C      -0.02704694     -1.77242081     -0.10446040
C      -1.03035128     -0.79392227      0.00816669
C      -2.46505552     -1.24470065      0.05404648
C      -0.65321396      0.56438556      0.06674499
C      -1.67583109      1.65032542      0.16888782
O      -2.88573257      1.53495978      0.12005307
O      -1.12523204      2.86852707      0.33866076
C       0.71294214      0.90390134      0.01912610
H       3.34862070      1.21196199      0.42385601
H       3.43275608      0.48594193     -1.20085548
H       3.79273613     -0.48508164      0.24760089
H       2.07309001     -2.20256393     -0.24423287
H      -0.29265890     -2.82680025     -0.15965838
H      -2.54248813     -2.33755447      0.04084364
H      -2.94585896     -0.90275280      0.97591377
H      -3.01134714     -0.87199338     -0.81795589
H      -1.90193649      3.46375237      0.39346476
H       1.01517867      1.94915114      0.05416819
