53
O=C(NCc1ccc(OC(F)(F)F)cc1)C1c2c(F)cccc2C(=O)N1CCc1ccccn1
O       0.60699102     -2.39864810      2.12740019
C       0.21087236     -1.26390080      1.86975673
N       0.87125331     -0.12618700      2.30152530
C       2.23071622     -0.18811807      2.78302835
C       3.18381942      0.01327954      1.63086326
C       3.54303449     -1.06653317      0.81271023
C       4.36554954     -0.88007476     -0.30345681
C       4.83823534      0.39264673     -0.62045237
O       5.63510617      0.72362452     -1.67840689
C       5.96186985     -0.29957682     -2.60248552
F       6.70684417      0.23679109     -3.59490532
F       4.85220819     -0.83307525     -3.15777483
F       6.68778319     -1.27465755     -2.01533280
C       4.48606575      1.47096241      0.19695056
C       3.66178819      1.28804157      1.30997220
C      -0.96842064     -0.99111819      0.90984498
C      -0.49761393     -0.91807813     -0.51087361
C       0.12750805     -1.86849279     -1.28672039
F       0.38369084     -3.08775623     -0.80089261
C       0.49934027     -1.55240192     -2.59470681
C       0.23326026     -0.27702981     -3.12283226
C      -0.40922853      0.68783712     -2.34448711
C      -0.75742935      0.33778921     -1.05139240
C      -1.43880567      1.14254806     -0.03470368
O      -1.83188144      2.28125265     -0.19662167
N      -1.53606575      0.35704348      1.10392460
C      -2.42840751      0.67930386      2.20939474
C      -3.75858557     -0.08331065      2.19673019
C      -4.49945041      0.01281521      0.88901754
C      -5.13823571      1.19080273      0.51238581
C      -5.77541611      1.24175510     -0.72387687
C      -5.75992862      0.12231917     -1.54640983
C      -5.10226273     -1.00877253     -1.09653975
N      -4.47306570     -1.08821469      0.09643105
H       0.55368957      0.75329282      1.90959276
H       2.42528827     -1.14422381      3.28119020
H       2.35493759      0.60534643      3.52775716
H       3.16643500     -2.06577900      1.03333649
H       4.60572640     -1.75667533     -0.89848175
H       4.84803988      2.46937455     -0.03952533
H       3.38988448      2.14990831      1.91548878
H      -1.75140689     -1.74348294      1.03617289
H       0.99800083     -2.30300212     -3.20175620
H       0.52817701     -0.04344727     -4.14352617
H      -0.63052030      1.67686877     -2.73238612
H      -1.89541381      0.46949653      3.14303221
H      -2.62631268      1.75740956      2.18552623
H      -4.40166157      0.28656336      3.00455895
H      -3.57287312     -1.14140644      2.42012804
H      -5.12710454      2.06466039      1.15560911
H      -6.27126370      2.15298946     -1.04559450
H      -6.24440260      0.13305055     -2.51577072
H      -5.06035880     -1.90929691     -1.70241627
