30
CC(C)(C)OOC(=O)C(C)(C)C
C       2.65367656      0.38128425     -1.10707844
C       2.29682671      0.24750824      0.37726233
C       3.47898233      0.73077583      1.22573973
C       1.97796278     -1.20595546      0.74221578
O       1.20140572      1.11700508      0.70867247
O       0.04615451      0.71895090     -0.09656775
C      -0.96460010      0.37792591      0.76895784
O      -0.87673961      0.35555280      1.99098872
C      -2.22534336      0.00023019     -0.01586787
C      -3.35935696     -0.33483831      0.96634000
C      -2.66086845      1.18140586     -0.89352260
C      -1.93430594     -1.23211157     -0.88248710
H       3.55729047     -0.18567348     -1.35480428
H       2.81581066      1.43139242     -1.37512114
H       1.84327027      0.01677017     -1.74789629
H       3.71051299      1.78038633      1.01019974
H       3.23773845      0.68072999      2.29394586
H       4.37933982      0.13401510      1.04597446
H       1.65060613     -1.28344970      1.78498389
H       2.84968858     -1.85401966      0.60224000
H       1.16499152     -1.60489454      0.12636073
H      -4.27812298     -0.60807511      0.43533804
H      -3.58855361      0.51916302      1.61431740
H      -3.08724982     -1.17450226      1.61647303
H      -2.81221012      2.08447173     -0.29104758
H      -3.59841215      0.96234973     -1.41663602
H      -1.90801755      1.42038070     -1.65310101
H      -2.83216571     -1.56286626     -1.41628114
H      -1.57701300     -2.06824985     -0.27037113
H      -1.16129816     -1.02566208     -1.63136657
