47
Cc1ccc(OP(=O)(Oc2cccc(C)c2)Oc2ccccc2C)cc1
C       6.37125048      1.82883650      1.76869019
C       5.05137865      1.20354597      1.42759004
C       4.76794556     -0.10413068      1.83653321
C       3.54878319     -0.69776002      1.50388351
C       2.60384101      0.00509514      0.75690015
O       1.44260574     -0.66086126      0.48850883
P       0.16436291     -0.01866915     -0.25846257
O       0.42823504      0.50627772     -1.64283724
O      -0.36950179      1.07496722      0.80132866
C      -1.51782079      1.80058227      0.66159367
C      -1.87441439      2.58611582      1.75787028
C      -3.03538122      3.35680180      1.72011566
C      -3.84039514      3.34766822      0.58180897
C      -3.48239080      2.57715479     -0.53089017
C      -4.36012051      2.54383859     -1.74787487
C      -2.31928908      1.79369799     -0.47943490
O      -0.94359650     -1.18636689     -0.16609243
C      -0.88168027     -2.39062707     -0.81164549
C       0.13576462     -2.72997099     -1.70475520
C       0.13492540     -3.98191540     -2.32269394
C      -0.88028006     -4.89539178     -2.05170875
C      -1.90078998     -4.55844858     -1.16319646
C      -1.91343269     -3.30388392     -0.53698614
C      -3.02026122     -2.95235276      0.41726735
C       2.88209145      1.30188948      0.33341800
C       4.10323038      1.89688368      0.66639300
H       6.60039189      1.68196907      2.82936235
H       6.36207577      2.90782701      1.58101458
H       7.16581179      1.38070904      1.16391297
H       5.49509378     -0.66859537      2.41585859
H       3.33854209     -1.71322034      1.83020504
H      -1.25012321      2.59461013      2.64780258
H      -3.31570117      3.95967280      2.58019549
H      -4.74782387      3.94784502      0.56682473
H      -5.04631087      1.69301017     -1.69069152
H      -3.75900386      2.45520552     -2.65900587
H      -4.94717309      3.46434181     -1.83446402
H      -2.06096911      1.19339241     -1.34739481
H       0.94088360     -2.04306201     -1.94825752
H       0.92822610     -4.24217096     -3.01905025
H      -0.87913566     -5.86944537     -2.53452646
H      -2.68826131     -5.28171180     -0.96342795
H      -2.61394902     -2.76889998      1.41721695
H      -3.75330665     -3.76188734      0.49815270
H      -3.55025027     -2.05919334      0.07083367
H       2.17911274      1.87728515     -0.26172203
H       4.30681034      2.90934171      0.32459160
