24
Cc1ccccc1C(C)C
C      -0.44943300      2.37643274      0.49824192
C      -0.96658415      0.96325882      0.47588340
C      -2.34348684      0.75434996      0.67323851
C      -2.88505195     -0.52959389      0.66398879
C      -2.05801718     -1.62554711      0.45715334
C      -0.69024811     -1.43624997      0.25979031
C      -0.11896464     -0.14781114      0.26477837
C       1.38193355      0.00682617      0.04436819
C       1.80363330     -0.50313226     -1.33730685
C       2.18741579     -0.68290009      1.14998555
H       0.00910793      2.62887081     -0.46316745
H      -1.25411198      3.09842927      0.67460079
H       0.28168891      2.50117082      1.30334647
H      -3.00851136      1.59988208      0.83697369
H      -3.95106432     -0.67170189      0.81820191
H      -2.47438228     -2.62908843      0.44885456
H      -0.06671038     -2.31334276      0.10017590
H       1.65537258      1.06631649      0.07874993
H       2.86673297     -0.30441463     -1.51175294
H       1.64742531     -1.58189911     -1.44425672
H       1.23494276     -0.00235665     -2.12876633
H       2.04711409     -1.76912258      1.14622017
H       1.89325230     -0.31070063      2.13767419
H       3.25794671     -0.48767603      1.02368288
