53
Cc1noc(C)c1S(=O)(=O)NCC(c1ccccc1)N1CCCCCC1
C       4.67325878      0.50493300     -2.92323528
C       4.75374602      0.52731917     -1.44227924
N       5.83747931      0.02867942     -0.82833251
O       5.63262073      0.22239935      0.52737431
C       4.42535834      0.81661808      0.72363863
C       4.05500511      1.11517612      2.11968727
C       3.82551651      1.00987738     -0.49628707
S       2.29945278      1.70937954     -0.77030281
O       2.45206658      3.08257935     -0.34886989
O       1.93915136      1.35847109     -2.12558431
N       1.18552346      0.98902359      0.26400746
C       0.85818307     -0.44405345      0.00054985
C      -0.51211011     -0.77516314      0.67192541
C      -0.94758220     -2.22441656      0.47620172
C      -1.46380165     -2.94563960      1.56816045
C      -1.86761843     -4.27570153      1.42762028
C      -1.76429529     -4.90915428      0.19234924
C      -1.25622478     -4.21388695     -0.90105209
C      -0.85180121     -2.88308806     -0.76132439
N      -1.53331895      0.26462167      0.33962056
C      -2.64430912      0.31305973      1.29266417
C      -2.92966362      1.76437263      1.69415234
C      -3.60202741      2.63243768      0.63488942
C      -2.91023099      2.65330944     -0.72666946
C      -3.02594811      1.31249051     -1.44534199
C      -1.95167481      0.28536601     -1.06582546
H       3.91840505     -0.21560125     -3.25539169
H       5.63043667      0.21496222     -3.37401399
H       4.41477247      1.49490762     -3.31295295
H       3.91500918      2.19265012      2.25612944
H       4.83307941      0.78569624      2.81497525
H       3.12362569      0.60709297      2.39193285
H       0.31725395      1.54036580      0.27077404
H       1.64981238     -1.07452312      0.42070949
H       0.81334780     -0.62625305     -1.07660740
H      -0.29383069     -0.65472533      1.74476561
H      -1.55373790     -2.47604714      2.54602470
H      -2.26395828     -4.81650895      2.28358312
H      -2.07984228     -5.94354297      0.08162642
H      -1.17897738     -4.70580312     -1.86825231
H      -0.47445788     -2.37028407     -1.64236503
H      -2.38167376     -0.20284696      2.22431380
H      -3.54281077     -0.18938712      0.91529639
H      -1.99465415      2.24473877      2.01001361
H      -3.57539807      1.75679456      2.58116551
H      -4.64175992      2.30233375      0.51036987
H      -3.65329815      3.66046536      1.01633377
H      -3.41149527      3.41253562     -1.34011021
H      -1.86387835      2.96648712     -0.63298688
H      -2.95021634      1.48709929     -2.52672688
H      -4.02274685      0.88395763     -1.27987854
H      -2.33283322     -0.69166668     -1.38059748
H      -1.07692870      0.49809249     -1.69066252
