43
COc1cc(OC)c2c(c1Cl)O[C@]1(C2=O)C(OC)CC(=O)C[C@H]1C
C       3.17768912     -2.39323683      3.82037985
O       1.83253484     -2.00773385      3.57257118
C       1.51554956     -1.51853250      2.32984633
C       2.43366679     -1.41845896      1.26093713
C       2.04228427     -0.91235916      0.01383295
O       2.84598435     -0.78057339     -1.07754809
C       4.21489836     -1.13822144     -0.94557733
C       0.72118007     -0.51599337     -0.11875679
C      -0.19659065     -0.60500132      0.90900726
C       0.18174137     -1.10673210      2.14361914
Cl     -0.98255389     -1.21736609      3.41584445
O      -1.46731885     -0.18232341      0.59784621
C      -1.41198278      0.34778761     -0.76071518
C      -0.00393616      0.03290146     -1.24318982
O       0.42803777      0.18923286     -2.37117471
C      -1.64995934      1.88010834     -0.69079758
O      -0.57270083      2.49431003      0.03954791
C      -0.91038324      3.75600253      0.60256761
C      -1.78070487      2.50603389     -2.07761395
C      -2.82260570      1.77066787     -2.87907765
O      -3.72638856      2.36809300     -3.46090021
C      -2.66544615      0.27326216     -2.98854109
C      -2.51434078     -0.34724221     -1.59652533
C      -2.32920820     -1.86455089     -1.71056014
H       3.47074446     -3.23189452      3.18055323
H       3.86007336     -1.54529191      3.70142045
H       3.24309466     -2.72941978      4.85964154
H       3.45748809     -1.74164826      1.40441477
H       4.71210133     -0.52401387     -0.18761289
H       4.32282423     -2.20481556     -0.72306836
H       4.70537338     -0.94639217     -1.90470005
H      -2.57945045      2.03840789     -0.12540193
H      -1.12502959      4.48970656     -0.17835777
H      -0.05212887      4.11098420      1.17960545
H      -1.76520730      3.65940742      1.27852362
H      -2.08164279      3.55596336     -1.99647760
H      -0.83160812      2.49811158     -2.62303747
H      -1.80715995      0.06181773     -3.63392618
H      -3.55524898     -0.13323329     -3.48342467
H      -3.46258463     -0.19776851     -1.05893740
H      -3.17504146     -2.31380726     -2.24253352
H      -2.27745771     -2.33430022     -0.72332452
H      -1.41858610     -2.12188762     -2.26096304
