28
O=C(Nc1ccc(Cl)cc1)Nc1ccc(Cl)c(Cl)c1
O       0.02625089     -0.87573654      1.10936942
C      -0.01039682     -0.07724609      0.18345273
N      -1.16746595      0.47354591     -0.34995737
C      -2.50057946      0.15062522     -0.02099482
C      -2.86584063     -0.93419651      0.78020511
C      -4.21411172     -1.19519930      1.05208795
C      -5.20279121     -0.37411056      0.51865078
Cl     -6.85883668     -0.69587283      0.85201697
C      -4.85531521      0.70559251     -0.28767175
C      -3.50781706      0.96471650     -0.55813044
N       1.10334995      0.41005482     -0.48844257
C       2.46004313      0.17971762     -0.17644154
C       2.89571880     -0.43329201      0.99985270
C       4.26201179     -0.61763556      1.24311447
C       5.20884336     -0.18530562      0.31408169
Cl      6.87659966     -0.44325617      0.67853461
C       4.78289281      0.43679759     -0.86187557
Cl      5.88930823      1.00721584     -2.06153841
C       3.41480591      0.61946388     -1.10220241
H      -1.04169240      1.29484547     -0.92127444
H      -2.12554927     -1.60494886      1.20615589
H      -4.47856956     -2.04252179      1.67940840
H      -5.62446407      1.34790787     -0.70806415
H      -3.26189459      1.81359028     -1.19083016
H       0.91879109      0.84582555     -1.37941923
H       2.19736667     -0.77631183      1.75844230
H       4.57533796     -1.10037343      2.16626528
H       3.10400439      1.10610804     -2.02328208
