50
COC1=CCC2=C(CCC3C2CCC2(C)C3CCC2(O)C#N)C1
C       6.17771843     -0.77217985      1.42023522
O       5.14942553     -0.20566517      2.22743856
C       4.02266658      0.16470060      1.51150143
C       3.50383702      1.38250078      1.71166967
C       2.24165132      1.86522804      1.06717843
C       1.54330998      0.84208997      0.18512121
C       2.07896767     -0.37990631     -0.03681403
C       1.47577596     -1.36446953     -1.00406842
C       0.54378424     -0.69640627     -2.00791151
C      -0.48552274      0.21688196     -1.32732498
C       0.23924338      1.30294840     -0.47588211
C      -0.71337671      1.96727367      0.54398083
C      -2.18273411      1.84206088      0.15555852
C      -2.63294257      0.36360542      0.13908934
C      -2.84426545     -0.11426352      1.60460114
C      -1.55419007     -0.56354775     -0.51899202
C      -2.34518525     -1.56745714     -1.38977175
C      -3.82124836     -1.36374521     -1.06043687
C      -3.90688478      0.12738533     -0.73121424
O      -3.79404267      0.84152366     -1.97650196
C      -5.17754842      0.47215466     -0.06059350
N      -6.19323951      0.73124750      0.43907009
C       3.36530718     -0.85243541      0.61324460
H       5.91770293     -1.79229738      1.11916226
H       6.38329568     -0.15106403      0.54059612
H       7.08979989     -0.82212252      2.02209883
H       4.00133229      2.06643883      2.39389365
H       2.47483902      2.75170752      0.46484252
H       1.57343208      2.18115737      1.87524413
H       0.94905908     -2.14543421     -0.44397125
H       2.27111153     -1.86462248     -1.57009410
H       0.06012351     -1.46317427     -2.62210769
H       1.14284243     -0.09163834     -2.70306038
H      -1.01429052      0.74167915     -2.13662274
H       0.53868949      2.08694859     -1.18820812
H      -0.45954618      3.03173512      0.62817192
H      -0.57161616      1.54449314      1.54485221
H      -2.31800168      2.32137527     -0.82088368
H      -2.79913276      2.41650641      0.85823636
H      -3.55754264      0.52533714      2.13593175
H      -3.21620213     -1.14267177      1.65460622
H      -1.90936762     -0.09264908      2.17461582
H      -1.03900766     -1.13132825      0.26633780
H      -2.03460317     -2.60028028     -1.19679977
H      -2.19253612     -1.37560479     -2.45846482
H      -4.11299189     -1.99515490     -0.21322817
H      -4.44722481     -1.64502192     -1.91479765
H      -4.63979766      0.74371687     -2.45020791
H       4.06440723     -1.12314132     -0.18702447
H       3.15471918     -1.75648613      1.19770351
