31
COc1c2occc2c(OC)c2c(=O)cc(C)oc12
C      -1.96808941     -3.27140911     -0.29375150
O      -1.99860384     -1.86045287     -0.12872308
C      -0.77573578     -1.21770546     -0.01323573
C       0.50100153     -1.79621476     -0.04059137
O       0.80172092     -3.12287809     -0.18052215
C       2.15065747     -3.24844111     -0.13037825
C       2.73965868     -2.01978222      0.03499086
C       1.68204518     -1.06792287      0.08398437
C       1.61028729      0.33326600      0.22843730
O       2.77281763      1.04259432      0.40894529
C       3.30718548      1.45260209     -0.85061921
C       0.34576750      0.95152008      0.28521745
C       0.19488333      2.41459021      0.46354100
O       1.12938856      3.20334095      0.51129200
C      -1.17843835      2.93234724      0.56647631
C      -2.21338348      2.09573203      0.43837196
C      -3.63546491      2.55470614      0.52107633
O      -2.08175008      0.74075631      0.21310448
C      -0.81935720      0.18268298      0.16361670
H      -1.52233978     -3.76244523      0.57699909
H      -3.00350601     -3.61796611     -0.36957867
H      -1.46135820     -3.55078406     -1.22283917
H       2.53151142     -4.25634607     -0.22187326
H       3.79955775     -1.82189491      0.11293707
H       3.70821783      0.59271693     -1.39737533
H       4.13136709      2.14505490     -0.65556751
H       2.56315485      1.97279326     -1.46391985
H      -1.28878426      3.99597077      0.73503789
H      -4.16069683      2.32742509     -0.41219184
H      -4.15020952      2.04327828      1.34082705
H      -3.71150487      3.63286531      0.69631174
