35
CCCCCCOCCOCCO
C      -5.16288380     -0.43745341     -0.27072180
C      -3.99994734      0.53697316     -0.37963688
C      -3.19609644      0.59260706      0.91962931
C      -2.08110006      1.64250957      0.90168012
C      -1.01735994      1.46324515     -0.18235512
C      -0.27480540      0.13336432     -0.10198317
O       0.75081256      0.14174723     -1.09385208
C       1.42427198     -1.11023404     -1.23549519
C       2.24998618     -1.52166850     -0.00874384
O       3.09991668     -0.49233271      0.50399125
C       4.12834786     -0.09132775     -0.40866286
C       5.05405810      0.87276696      0.32633677
O       5.63113057      0.21604929      1.45472485
H      -5.72309414     -0.46532034     -1.21058215
H      -4.80681471     -1.45033103     -0.05702153
H      -5.85170549     -0.13945747      0.52617386
H      -4.38728277      1.53337412     -0.62146484
H      -3.35904360      0.22446368     -1.21096824
H      -2.77819485     -0.39608413      1.14167328
H      -3.87303520      0.83226654      1.74949650
H      -2.53134150      2.63614821      0.78455867
H      -1.58998725      1.64184125      1.88282391
H      -0.28892037      2.28032781     -0.09823768
H      -1.45823272      1.57836783     -1.17970671
H      -0.95640308     -0.70197423     -0.29282697
H       0.17067947      0.01895633      0.89131392
H       0.69908555     -1.89280669     -1.48715673
H       2.08572246     -1.00546767     -2.10155043
H       2.84914616     -2.41131744     -0.23473467
H       1.57601957     -1.79611110      0.80916183
H       4.68818140     -0.97721001     -0.72795902
H       3.69168507      0.41054939     -1.27680601
H       4.50021526      1.74110112      0.69680295
H       5.86196346      1.21496979     -0.32607325
H       4.87502634     -0.19461438      1.91817192
