27
CC12CCC(CC1=O)C2(C)C(=O)O
C       0.23122129      2.16923073     -0.79926433
C      -0.31885952      0.83602694     -0.34738257
C      -1.29908475      0.89078523      0.84474371
C      -1.38199737     -0.58654861      1.28612523
C      -0.46511134     -1.31779240      0.26875083
C      -1.20604616     -1.36347997     -1.08410046
C      -1.11868630      0.10612998     -1.43110505
O      -1.62651707      0.61759601     -2.41680791
C       0.67464664     -0.28737099      0.04489832
C       1.70360092     -0.65893485     -1.03168391
C       1.46576244     -0.00981456      1.31680885
O       1.82311161      1.07818714      1.73324064
O       1.81571167     -1.13357487      1.97209405
H       0.80487312      2.66256788     -0.00984477
H      -0.57999319      2.84684272     -1.08848271
H       0.88182044      2.05699910     -1.67296993
H      -2.28664505      1.26917744      0.55684559
H      -0.92296021      1.51552271      1.66211134
H      -2.41091927     -0.96052044      1.26598030
H      -1.00778259     -0.69852782      2.30972537
H      -0.15546880     -2.30636645      0.61695179
H      -2.24491386     -1.68678023     -0.98875063
H      -0.67462968     -1.96091951     -1.82819904
H       1.27941657     -0.73947203     -2.03647400
H       2.17795331     -1.61863999     -0.79640900
H       2.50075102      0.09223470     -1.08292976
H       2.34074612     -0.81255789      2.73612805
