52
C=C1CC[C@@]2(O)C3Cc4ccc(O)c5c4[C@@]2(CCN3CC2CC2)[C@H]1O5.Cl
C      -4.30716850     -1.86913539     -0.58721001
C      -3.00825222     -1.75461799     -0.43592104
C      -2.12784447     -2.44917122     -1.42974872
C      -0.90971321     -1.63233057     -1.78246715
C      -0.21665962     -1.23956237     -0.51080953
O       0.17736064     -2.41445039      0.12623603
C       1.03337451     -0.42296355     -0.75103589
C       0.84219716      0.96516070     -1.25735690
C      -0.50966313      1.51810349     -1.02799180
C      -0.92468062      2.69281013     -1.58584617
C      -2.22646475      3.14562731     -1.36527515
C      -3.09759635      2.39411319     -0.57581343
O      -4.39206034      2.84050928     -0.35506825
C      -2.69436510      1.21698296     -0.01232413
C      -1.41000253      0.83947775     -0.26911113
C      -1.07567935     -0.45582433      0.42331846
C      -0.34240856     -0.19682679      1.69052548
C       1.12410065     -0.43247943      1.67609800
N       1.77569951     -0.39646666      0.44556623
C       3.16200407     -0.50873212      0.39492833
C       3.85193881      0.70481689      0.99366293
C       5.33500167      0.74021813      1.01719841
C       4.57489331      0.55486149      2.29854285
C      -2.46325783     -0.96461220      0.67682110
O      -3.27653383      0.22969751      0.80376073
Cl      0.68381368      0.00000000      0.00000000
H      -4.70924231     -2.44424513     -1.40031609
H      -4.97745621     -1.38636056      0.10353413
H      -2.70865532     -2.74621405     -2.33124974
H      -1.79627086     -3.38804996     -0.94056069
H      -0.22387583     -2.31728001     -2.33628643
H      -1.16148412     -0.76394474     -2.42322815
H      -0.29615612     -2.53741870      0.97806193
H       1.63837885     -0.98223337     -1.52395171
H       1.03999777      1.05911816     -2.35562420
H       1.55769831      1.67255063     -0.76230630
H      -0.26206043      3.27874225     -2.19577108
H      -2.55787410      4.06819288     -1.80096241
H      -4.74276340      3.70893419     -0.74931054
H      -0.80782896     -0.84647693      2.49066348
H      -0.58496094      0.86077437      1.99501767
H       1.38440503     -1.38328334      2.23329662
H       1.58459042      0.36602857      2.33650722
H       3.50326116     -1.45128637      0.90322556
H       3.50077001     -0.58748053     -0.66450486
H       3.30011094      1.65060100      0.88445760
H       5.90902955     -0.16937982      0.67749028
H       5.86589416      1.68794342      0.81563538
H       4.60290553      1.44068756      2.99898987
H       4.58835979     -0.41604518      2.82569851
H      -2.54099284     -1.47908015      1.64081467
H      -0.68381368      0.00000000      0.00000000
