12
Fc1ccc(F)cc1
F      -2.35612612      1.33944823      0.23923381
C      -1.19644087      0.68017189      0.12148337
C      -1.20812705     -0.70560165     -0.01648565
C      -0.00029358     -1.39225024     -0.13912638
C       1.19644076     -0.68017189     -0.12148343
F       2.35612610     -1.33944803     -0.23923412
C       1.20812693      0.70560153      0.01648640
C       0.00029358      1.39225024      0.13912658
H      -2.15410681     -1.23748451     -0.02733412
H       0.01736549     -2.47195780     -0.24782067
H       2.15410671      1.23748423      0.02733452
H      -0.01736514      2.47195799      0.24781969
