58
CC(=O)OCCN1CCN(CCCN2c3ccccc3Sc3ccc(Cl)cc32)CC1
C       8.16413080      2.82315653      1.86306115
C       7.28036008      2.20012480      0.82615167
O       7.10219525      2.65711954     -0.29323084
O       6.71416272      1.06650889      1.32131768
C       5.84942100      0.35108248      0.41791093
C       4.43381062      0.95002086      0.43817740
N       3.46429255      0.22506734     -0.40308323
C       3.10317884     -1.08786183      0.16900017
C       2.01193253     -1.81203271     -0.65525113
N       0.78142242     -1.00366822     -0.79651290
C      -0.20958946     -1.71565847     -1.61656566
C      -1.62435014     -1.14031306     -1.48293423
C      -2.16797614     -1.26716720     -0.05090386
N      -3.52105275     -0.66741867      0.06865201
C      -4.64100920     -1.52312559     -0.14749043
C      -4.51029043     -2.81342329     -0.71210080
C      -5.60570137     -3.65786643     -0.93529105
C      -6.88154110     -3.23855504     -0.60217243
C      -7.05360954     -1.97473681     -0.05124956
C      -5.95417247     -1.12065266      0.17275221
S      -6.35423905      0.44890322      0.90234578
C      -4.80746156      1.31655705      0.81326476
C      -4.86296772      2.68040880      1.16889850
C      -3.71998521      3.47184418      1.16154209
C      -2.51496183      2.89775175      0.79828539
Cl     -1.08231431      3.85369385      0.77573468
C      -2.45064500      1.54622205      0.44592912
C      -3.58962883      0.70838223      0.44322390
C       1.15355306      0.30030161     -1.39194447
C       2.23422192      1.03079668     -0.56241713
H       8.59911168      3.74392036      1.46331128
H       8.97501368      2.13699296      2.11971522
H       7.57609410      3.07336658      2.74971329
H       6.26892249      0.33937302     -0.59552546
H       5.84039710     -0.68370233      0.77285447
H       4.51332339      1.98611724      0.08452887
H       4.08090083      1.02378648      1.47576416
H       2.75111411     -0.97338309      1.20307501
H       3.98180355     -1.74130159      0.19240493
H       1.77268083     -2.75218108     -0.14335103
H       2.41812887     -2.07110558     -1.64266196
H      -0.25778337     -2.76739110     -1.30434532
H       0.08795249     -1.72127701     -2.67302151
H      -1.64999775     -0.09926528     -1.82127576
H      -2.27761001     -1.68114986     -2.17747479
H      -2.17151970     -2.31897355      0.26214135
H      -1.48064370     -0.82206454      0.67844423
H      -3.54666787     -3.20807804     -1.01591339
H      -5.45163408     -4.64097460     -1.37294198
H      -7.73780752     -3.88543495     -0.76953509
H      -8.05983254     -1.65199156      0.20922116
H      -5.81051428      3.13366689      1.45633847
H      -3.78048888      4.52039107      1.43717376
H      -1.47502648      1.17133253      0.15951918
H       0.27928140      0.95660551     -1.44594305
H       1.52071709      0.16484144     -2.41838574
H       1.81567596      1.29354598      0.41887504
H       2.47722292      1.96887220     -1.07630826
