43
CNn1cc(C(=O)O)c(=O)c2cc(F)c(N3CCN(C)CC3)cc21
C      -2.79584356     -2.75399991     -0.63949425
N      -2.74669625     -2.11483375      0.67126176
N      -2.93871220     -0.73370662      0.55621603
C      -4.21382894     -0.25078849      0.78114372
C      -4.57882849      1.03913907      0.78269805
C      -5.99174552      1.39005700      1.02968485
O      -6.86604565      0.56065616      1.23422845
O      -6.25136633      2.71558243      1.01044235
C      -3.51627450      2.03583608      0.53530068
O      -3.79137025      3.23404451      0.51416653
C      -2.12922060      1.55609021      0.32494847
C      -1.11321458      2.48655696      0.11321836
C       0.18901998      2.03959611     -0.07956290
F       1.12934792      2.96788343     -0.31986223
C       0.52987589      0.67082161     -0.06284712
N       1.85645121      0.25799223     -0.27814286
C       2.82959370      0.79507633      0.70713302
C       4.28148624      0.56571390      0.22400716
N       4.56630320     -0.85433795     -0.08163852
C       5.93306625     -1.00758406     -0.57640870
C       3.59220864     -1.33083789     -1.08696906
C       2.12892376     -1.15391148     -0.61834629
C      -0.52585665     -0.23978132      0.14154338
C      -1.85911427      0.17519427      0.34222618
H      -1.99639064     -2.40565577     -1.30092819
H      -3.75985310     -2.58265942     -1.13042016
H      -2.68035423     -3.83551334     -0.51729719
H      -1.88719615     -2.34423639      1.16804167
H      -4.94623214     -1.03592299      0.96559534
H      -5.46062502      3.28074042      0.83025612
H      -1.31678873      3.55307983      0.08697770
H       2.70301835      1.86940299      0.87335142
H       2.68060810      0.29534114      1.67367362
H       4.96184284      0.91193456      1.01137535
H       4.46078089      1.18849209     -0.66301901
H       6.11093319     -0.43707324     -1.49517301
H       6.15092250     -2.06212861     -0.77836413
H       6.65337466     -0.67628553      0.17970280
H       3.76139287     -2.39638869     -1.28347934
H       3.72984534     -0.79490348     -2.03594597
H       1.47236606     -1.48126148     -1.43374745
H       1.94888322     -1.79713328      0.25280685
H      -0.30468699     -1.30028765      0.15538736
