25
CC(CC(C)O[N+](=O)O)O[N+](=O)O
C       0.88756508      1.83494228     -1.55986982
C       1.28730437      0.47455900     -0.98922032
C       0.15968209     -0.56521290     -1.15233702
C      -1.09678181     -0.30759693     -0.30117402
C      -2.20084491     -1.28727352     -0.69524050
O      -0.76237154     -0.53316041      1.06788876
N      -1.56293786      0.25562304      1.94418311
O      -2.65658996      1.03626780      1.49858728
O      -1.29634115      0.25168741      3.32539470
O       1.63741481      0.69089631      0.37532721
N       2.44493003     -0.36599119      0.88759227
O       2.97746405     -1.39404110      0.07245767
O       2.77377315     -0.39329162      2.25516705
H       0.56024197      1.75223580     -2.60062151
H       1.74043377      2.52212080     -1.52071111
H       0.09235579      2.30380850     -0.97148956
H       2.16657553      0.14675740     -1.55800991
H      -0.11423809     -0.61827600     -2.21343483
H       0.55914055     -1.54901996     -0.87582116
H      -1.43645352      0.71862602     -0.47356626
H      -3.09711906     -1.13229228     -0.08593453
H      -2.47657494     -1.17149729     -1.74793114
H      -1.88379199     -2.32257897     -0.52705461
H      -1.99883552      0.86434447      3.59708664
H       3.29599918     -1.21163665      2.24873159
