23
CC1(C)OC(=O)c2cc(C#N)ccc21
C      -2.12264130     -0.64075056     -1.34015741
C      -1.52885268      0.12296844     -0.15960321
C      -2.33541107     -0.09631738      1.11747817
O      -1.54894295      1.53845457     -0.47491140
C      -0.29932920      2.08888810     -0.48866132
O      -0.01322335      3.24545604     -0.72010144
C       0.63203066      1.01626825     -0.17041446
C       2.01148041      1.08663021     -0.06657450
C       2.69522441     -0.08963890      0.25319879
C       4.12411715     -0.07948419      0.37465857
N       5.28001573     -0.07944088      0.47472364
C       1.98273221     -1.28986575      0.45739808
C       0.58707398     -1.32631206      0.34464058
C      -0.07765429     -0.15243968      0.02704506
H      -2.10987571     -1.72295707     -1.17227255
H      -3.15799090     -0.33032840     -1.52125035
H      -1.57069356     -0.43298073     -2.26468435
H      -2.33460333     -1.14793045      1.42346582
H      -3.37447850      0.22362186      0.97933754
H      -1.93526063      0.49987228      1.94633416
H       2.52943978      2.02807344     -0.23028782
H       2.51909141     -2.20553558      0.70668185
H       0.04775173     -2.25625154      0.50395656
