18
O=c1[nH]c2ccccc2[nH]c1=O
O      -3.64508707      0.84442966     -0.01717200
C      -2.51318447      0.37921272     -0.00679728
N      -1.39847112      1.18851023     -0.02806790
C      -0.09248768      0.69317103     -0.01712797
C       0.98442303      1.57764296     -0.04022986
C       2.28750888      1.07595340     -0.02910830
C       2.50990922     -0.30256649      0.00489991
C       1.43066257     -1.18830879      0.02802141
C       0.13019439     -0.68709116      0.01693597
N      -0.95379945     -1.56771605      0.03996358
C      -2.26651280     -1.14974270      0.03093111
O      -3.19472429     -1.94706965      0.05169383
H      -1.57581487      2.18325171     -0.05259616
H       0.82711757      2.65224550     -0.06678204
H       3.13273109      1.76053221     -0.04698922
H       3.52756999     -0.68683598      0.01337463
H       1.61928356     -2.25786352      0.05438472
H      -0.80931854     -2.56775510      0.06466557
