63
CCC(C)(CCC(C)C)C(=O)[O-].CCC(C)(CCC(C)C)C(=O)[O-].[Co+2]
C      -2.01824916     -0.22543085      1.74152298
C      -2.05336696     -0.70274662      0.33182081
C      -1.47299428      0.22031203     -0.67793897
C      -1.59744697     -0.43810723     -2.04002979
C      -0.07278921      0.66853544     -0.38841812
C       0.91265533     -0.46656761     -0.30475204
C       2.28048671      0.10620816     -0.01077732
C       3.26794672     -1.05207397      0.07133455
C       2.32657615      0.85803291      1.29300515
C      -2.33229454      1.43978043     -0.74330901
O      -3.36259364      1.61774507     -0.06393547
O      -1.91909535      2.42633276     -1.64031910
C      -3.18957878     -0.36140465      1.24529707
C      -1.78688490     -0.77035992      0.85260660
C      -1.32815485      0.14248677     -0.27161615
C      -2.35132089     -0.09559848     -1.40007767
C       0.05038284     -0.16721506     -0.75188951
C       1.07971153     -0.04534431      0.30535911
C       2.47711584     -0.35365177     -0.13033826
C       3.39737721     -0.18228624      1.06108965
C       2.95276295      0.43308841     -1.30798944
C      -1.52158093      1.53514591      0.18035000
O      -2.24365461      2.35863220     -0.47232287
O      -0.94131144      2.04511623      1.33135087
Co      0.00000000      0.00000000      0.00000000
H      -2.88453892     -0.69839087      2.28223476
H      -2.18548244      0.85710507      1.79593887
H      -1.12480602     -0.56113439      2.30531153
H      -3.14468413     -0.82277179      0.05893306
H      -1.64959612     -1.75164793      0.25036559
H      -1.16208068     -1.45235493     -2.05689783
H      -2.69473170     -0.57614554     -2.21162532
H      -1.24232051      0.20730526     -2.86072989
H       0.26036249      1.30467192     -1.25506425
H       0.02987584      1.28379908      0.50014004
H       0.57980288     -1.13103843      0.52929001
H       0.99581647     -1.03500959     -1.24555504
H       2.53924619      0.80820938     -0.81441643
H       2.81510153     -1.99191317     -0.32550241
H       3.52901116     -1.23884331      1.13743958
H       4.14511140     -0.75693051     -0.54059625
H       1.96743171      0.22663464      2.14027230
H       1.85281872      1.83633657      1.23165695
H       3.41482731      1.04009803      1.51060104
H      -3.92913028     -0.80203548      0.51341565
H      -3.31869002      0.71819232      1.35899871
H      -3.41102036     -0.91166715      2.20705690
H      -1.83897497     -1.82982190      0.53479981
H      -1.15885955     -0.63520718      1.77228857
H      -2.44732080     -1.21156722     -1.46631591
H      -2.01854856      0.36410093     -2.33787959
H      -3.30927558      0.35056081     -1.05141218
H       0.25105663      0.55529583     -1.59752831
H       0.01472677     -1.16122053     -1.24550182
H       0.82116577     -0.73595864      1.13337886
H       1.01871438      0.98121986      0.73467185
H       2.54224864     -1.43384866     -0.41366499
H       4.42952180     -0.21839895      0.67503686
H       3.16867666      0.71363025      1.65365402
H       3.26037680     -1.06445236      1.75036825
H       3.96198368      0.05293964     -1.57611489
H       3.06077898      1.51548705     -1.11064240
H       2.30770606      0.21414231     -2.17642881
