37
CC(C)(C)OC(=O)C1(S(=O)(=O)c2ccc(Cl)cc2)CC1
C      -3.42298085     -0.83704001     -0.24479729
C      -2.55385957     -0.29303484      0.89373642
C      -1.81162241     -1.41132645      1.63406806
C      -3.45638286      0.44480856      1.89364463
O      -1.63099023      0.71769534      0.41381152
C      -0.66594045      0.40537658     -0.48491122
O      -0.48230148     -0.67943491     -1.01357808
C       0.18632719      1.55456052     -0.78724960
S       1.69356760      1.63053966      0.20498493
O       2.58309996      2.62065914     -0.37477404
O       1.27657842      1.73913200      1.59007735
C       2.47393366      0.04843102     -0.00591114
C       3.20715542     -0.20176316     -1.17046483
C       3.82923353     -1.44081396     -1.33613394
C       3.72224943     -2.41113618     -0.33852448
Cl      4.49074256     -3.93627777     -0.54695133
C       3.00344423     -2.15280822      0.82955200
C       2.37943493     -0.91574867      1.00289723
C       0.30808238      2.09502238     -2.19404971
C      -0.38298992      2.91198762     -1.13643064
H      -3.87218260     -0.01721862     -0.81657479
H      -4.22601308     -1.47634347      0.13755311
H      -2.84108193     -1.43233715     -0.95482404
H      -1.13000899     -0.99484798      2.38437274
H      -1.19982200     -2.01434913      0.95624900
H      -2.51044751     -2.08926168      2.13577814
H      -3.97595687      1.27888743      1.40758322
H      -2.86286786      0.88178669      2.70526696
H      -4.20642311     -0.22099902      2.33327464
H       3.30444045      0.55590793     -1.94482525
H       4.39789121     -1.64340882     -2.24034566
H       2.92825092     -2.90890268      1.60713311
H       1.82657862     -0.71863871      1.91898979
H      -0.30470200      1.64428122     -2.96787924
H       1.26752741      2.44693575     -2.55637853
H       0.11861649      3.80208164     -0.77059297
H      -1.46058065      3.01759796     -1.19832055
