22
Clc1ccc(-c2c(Cl)cc(Cl)c(Cl)c2Cl)cc1
Cl     -5.23623114     -0.11816245     -0.49634391
C      -3.52447164     -0.07684760     -0.33153880
C      -2.89989726     -0.89023273      0.61066168
C      -1.50914082     -0.85637533      0.74481496
C      -0.73161337     -0.00917511     -0.06239744
C       0.73590308      0.02756616      0.08014488
C       1.35004645      0.92557753      0.97646406
Cl      0.42666140      2.02275787      1.94872283
C       2.73755896      0.96995459      1.12037303
C       3.54736207      0.11743286      0.37169195
Cl      5.25583264      0.24290798      0.61603392
C       2.97666873     -0.78992239     -0.53029526
Cl      3.99769913     -1.84774036     -1.45807557
C       1.57426482     -0.83225379     -0.67335868
Cl      0.84986254     -1.95787189     -1.79352413
C      -1.38058290      0.80389228     -1.00666880
C      -2.77133769      0.77005569     -1.14084492
H      -3.48683415     -1.55162225      1.24244615
H      -1.03591780     -1.49814459      1.48551588
H       3.18809088      1.67242030      1.81932162
H      -0.80602209      1.47084522     -1.64659166
H      -3.25790184      1.40493803     -1.87655181
