22
Clc1ccc(-c2cc(Cl)c(Cl)c(Cl)c2)cc1
Cl      5.24510660      0.68164228     -0.26609813
C       3.54185182      0.46028923     -0.17968675
C       2.71478313      1.54585971      0.09278775
C       1.32966771      1.36429511      0.16322728
C       0.75316289      0.09787673     -0.03821098
C      -0.70468452     -0.09158113      0.03574970
C      -1.40895946     -0.70510799     -1.01072969
C      -2.79709074     -0.88693971     -0.94341979
Cl     -3.55506229     -1.65483029     -2.29705747
C      -3.51727084     -0.45709076      0.17844012
Cl     -5.23550627     -0.68038211      0.26561012
C      -2.82252005      0.15663402      1.22851736
Cl     -3.61259753      0.72334606      2.66069371
C      -1.43433269      0.33559932      1.15497626
C       1.61048494     -0.98220511     -0.31238951
C       2.99601468     -0.80370225     -0.38251005
H       3.13757139      2.53491636      0.24882233
H       0.70071980      2.22943592      0.36649172
H      -0.87224513     -1.03689108     -1.89909402
H      -0.91428062      0.80471401      1.98972769
H       1.20589246     -1.98166327     -0.46322030
H       3.63929468     -1.65421506     -0.59262736
