48
COc1cncc(-c2cccc(-c3cn4cccc(C(=O)N(C)C)c4n3)c2)c1
C       7.80257574      1.53998046     -0.07992060
O       6.46278456      1.22514380     -0.44150661
C       5.86700661      0.21001238      0.24992422
C       6.41623432     -0.53347617      1.28520338
N       5.76635350     -1.53080308      1.93061279
C       4.50337228     -1.79619838      1.51813833
C       3.84323927     -1.12211988      0.49048127
C       2.46925940     -1.46303216      0.09377751
C       2.11223489     -2.78577837     -0.21139099
C       0.80769658     -3.10724859     -0.58597379
C      -0.16227878     -2.10820667     -0.66112693
C       0.15594875     -0.77640821     -0.36606239
C      -0.88346418      0.23990241     -0.45235485
C      -0.72339885      1.60219834     -0.31429706
N      -1.97368211      2.14415883     -0.47805037
C      -2.36305489      3.48084848     -0.43082097
C      -3.65494363      3.79473918     -0.62071155
C      -4.60546654      2.72326456     -0.87676636
C      -4.22290700      1.42687410     -0.90162313
C      -5.26611032      0.41240446     -1.22255555
O      -5.93406648      0.56238005     -2.24850616
N      -5.48305195     -0.63116868     -0.33306889
C      -6.35251700     -1.72201560     -0.73829074
C      -4.80372359     -0.80261802      0.94352264
C      -2.84936633      1.08761157     -0.70843010
N      -2.20557884     -0.06308299     -0.69584238
C       1.47373024     -0.46960210      0.00990214
C       4.56349690     -0.09875541     -0.14193683
H       8.46738926      0.68596073     -0.24680129
H       7.85912168      1.88798615      0.95678887
H       8.13997400      2.35682915     -0.72509983
H       7.42141042     -0.36246610      1.65441134
H       4.01299917     -2.59542511      2.06941638
H       2.85542851     -3.58033338     -0.17405644
H       0.54587373     -4.13484125     -0.82490871
H      -1.17566573     -2.37439235     -0.95813948
H       0.13819286      2.22497528     -0.12600205
H      -1.59520052      4.22056823     -0.24249259
H      -4.00993138      4.81978581     -0.59963168
H      -5.63960929      3.00379226     -1.06314921
H      -6.82100459     -1.54507739     -1.70964399
H      -7.13761538     -1.84604278      0.01348666
H      -5.75825857     -2.63888660     -0.79859900
H      -4.40508957      0.13839775      1.32669142
H      -5.51870559     -1.18624084      1.67814947
H      -3.99519241     -1.52811024      0.81809230
H       1.74059229      0.55456236      0.25969256
H       4.11496855      0.45995402     -0.96060256
