53
CCN(CC)c1cc(NC(C)=O)c(N=Nc2c(Cl)cc([N+](=O)[O-])cc2[N+](=O)[O-])cc1OC
C      -5.92471494      0.69850052      1.78995660
C      -4.68614248     -0.17111029      1.61173931
N      -3.90298726      0.26855779      0.45063440
C      -4.45362410      0.02289543     -0.89462490
C      -4.39737861     -1.44225583     -1.30746372
C      -2.49784872      0.16073354      0.52209389
C      -1.74620017      1.19883075     -0.07416838
C      -0.34818343      1.21092105     -0.06751138
N       0.42321698      2.24325282     -0.65815212
C      -0.02636232      3.33065690     -1.38249086
C       1.10138517      4.22382276     -1.83469956
O      -1.18661919      3.59118534     -1.68085200
C       0.32993301      0.15257007      0.56337679
N       1.74095911      0.13330208      0.64656880
N       2.20818038     -0.69975297     -0.16278035
C       3.60519812     -0.79798503      0.00106591
C       4.16662567     -1.76569332      0.85541453
Cl      3.16353348     -2.84004429      1.76914441
C       5.55505936     -1.90752978      0.99108686
C       6.41207290     -1.08300480      0.25153092
N       7.86686012     -1.23480766      0.38833893
O       8.28130682     -2.10251832      1.16697890
O       8.58317268     -0.48195843     -0.28375635
C       5.89393660     -0.12212270     -0.62064356
C       4.50025843      0.00022171     -0.72572611
N       3.98315619      0.99279935     -1.64116173
O       4.29050288      0.86460195     -2.83147103
O       3.31404806      1.91724074     -1.15994973
C      -0.40098699     -0.88486591      1.16513318
C      -1.79962085     -0.90495235      1.13498390
O      -2.54852499     -1.93302316      1.65379282
C      -1.86728820     -3.09111057      2.11544485
H      -6.63777909      0.56026540      0.97202612
H      -6.43638480      0.43716842      2.72160440
H      -5.65634346      1.75932066      1.83267302
H      -4.09889612     -0.06831260      2.53316837
H      -4.98665183     -1.22018864      1.52072061
H      -3.92913143      0.62836268     -1.64414311
H      -5.49507349      0.36016555     -0.93200045
H      -3.36808635     -1.81107078     -1.34918667
H      -4.83503225     -1.56595092     -2.30338373
H      -4.95782310     -2.07842805     -0.61592766
H      -2.30380236      2.01653644     -0.52172367
H       1.43368456      2.13357036     -0.58197033
H       1.61079300      3.76618879     -2.68670233
H       1.81128971      4.39014242     -1.01939688
H       0.69850979      5.19480415     -2.13702971
H       5.95251869     -2.66546253      1.66565072
H       6.54765036      0.51966418     -1.21103484
H       0.16254446     -1.67387073      1.65062431
H      -1.26237282     -3.54086609      1.32095629
H      -1.26042916     -2.86391908      2.99786245
H      -2.62210807     -3.82547699      2.41300445
