17
O=C(O)c1cncc(C(=O)O)c1
O       3.65822228      0.10283481     -0.03816816
C       2.55905296      0.49903548     -0.37535075
O       2.40977555      1.51264848     -1.24442584
C       1.26926283     -0.04069920      0.09073688
C       1.28120033     -1.09519098      0.99521175
N       0.15947283     -1.67319152      1.49371497
C      -1.02706289     -1.17164917      1.06638362
C      -1.13993929     -0.12051898      0.16503664
C      -2.44677389      0.39907465     -0.27748876
O      -2.61534840      1.31367285     -1.06158854
O      -3.48293636     -0.24845615      0.28044674
C       0.03312486      0.45516776     -0.33160685
H       3.32616522      1.77720398     -1.47356995
H       2.21440866     -1.52100023      1.35819544
H      -1.90109141     -1.66124963      1.48845792
H      -4.27504571      0.19245010     -0.09582816
H      -0.02248756      1.27986777     -1.03887008
