37
CCOC1Oc2ccc(OS(C)(=O)=O)cc2C1(C)C
C       5.56834798      0.32688273     -1.06033518
C       4.27781466      0.96523611     -0.58540808
O       3.29008002     -0.05483589     -0.47454496
C       2.04669990      0.45115489      0.01463285
O       1.45347540      1.41377602     -0.89713340
C       0.10720717      1.25172243     -0.70221026
C      -0.84935421      2.14332049     -1.13643315
C      -2.18700015      1.84402179     -0.86819165
C      -2.54248422      0.66524433     -0.18449038
O      -3.89175433      0.49630150      0.00590156
S      -4.50361015     -0.71644130      0.90649762
C      -6.20700328     -0.23745584      0.76970421
O      -4.09928321     -0.54861001      2.28800521
O      -4.33361592     -1.97441173      0.20753413
C      -1.55349451     -0.23353751      0.22688439
C      -0.22727165      0.07874929     -0.04043238
C       1.02161105     -0.70174079      0.22405841
C       1.11192749     -1.27252439      1.64035083
C       1.16481997     -1.82995190     -0.80877106
H       5.42190232     -0.16446810     -2.02796168
H       5.89783727     -0.44548951     -0.35741548
H       6.36010054      1.07463384     -1.16016116
H       3.95678494      1.72412846     -1.30670569
H       4.43664916      1.43880263      0.38957952
H       2.22879668      0.97824591      0.96354929
H      -0.56982353      3.04750935     -1.66524951
H      -2.96141401      2.53347469     -1.19628039
H      -6.80813599     -0.95766712      1.32845400
H      -6.49437406     -0.24907260     -0.28331190
H      -6.32926301      0.76053649      1.19477915
H      -1.78755734     -1.16604875      0.72953500
H       0.95303794     -0.49647730      2.39812556
H       0.35527526     -2.04746557      1.80806945
H       2.09551977     -1.72033913      1.82005024
H       2.09794902     -2.38559967     -0.66404327
H       1.16070665     -1.44492900     -1.83541881
H       0.33889637     -2.54667486     -0.72792920
