33
COc1c(Cl)cccc1NS(=O)(=O)c1ccc(N)cc1
C      -1.01758224      2.25330604     -0.33280226
O      -1.91078692      1.30140003     -0.91584463
C      -2.16952609      0.23284707     -0.08906126
C      -2.81908082      0.33498033      1.14854361
Cl     -3.40385355      1.83400899      1.77510025
C      -3.06083173     -0.81503815      1.90788060
C      -2.68761055     -2.06963627      1.42571170
C      -2.07952103     -2.18181594      0.17648902
C      -1.81976026     -1.03760882     -0.57990994
N      -1.21560422     -1.14312167     -1.87381501
S       0.34281273     -1.77505411     -2.01865340
O       0.39198573     -3.09824097     -1.43415400
O       0.74786541     -1.55007045     -3.39071451
C       1.31648982     -0.69353636     -0.99560720
C       1.91212698      0.43680512     -1.55888005
C       2.68160889      1.28086398     -0.75405513
C       2.90345490      0.97872789      0.59346710
N       3.55986099      1.89729789      1.41956700
C       2.27315335     -0.13992017      1.14840658
C       1.50576525     -0.99562672      0.35430238
H      -0.32543069      2.58099104     -1.11407120
H      -1.57944875      3.13181362     -0.00392690
H      -0.42842438      1.84643824      0.49668747
H      -3.56242772     -0.74195887      2.87050474
H      -2.89227824     -2.96294949      2.01160332
H      -1.83052796     -3.16896252     -0.20692000
H      -1.33960665     -0.31612250     -2.46187921
H       1.77554788      0.67547664     -2.61120805
H       3.11248047      2.17869941     -1.19065900
H       4.23846058      2.47648472      0.93393017
H       3.94724766      1.48722338      2.26437001
H       2.38159808     -0.35883746      2.20793053
H       1.05184310     -1.87886394      0.79766727
