62
COc1cncnc1N1CCN(CCc2c[nH]c3ccc(CS(=O)(=O)N(C)C)cc23)CC1
C       5.91469112     -2.03051743     -2.75701823
O       4.95085823     -2.55394779     -1.84095787
C       5.22516543     -2.12515044     -0.57215231
C       5.80251275     -3.01559669      0.31039948
N       6.12763825     -2.70780510      1.57789016
C       5.83793599     -1.45278513      1.94343426
N       5.25360744     -0.51363099      1.18140629
C       4.91886865     -0.85056030     -0.08367340
N       4.26768416      0.10804286     -0.89215965
C       2.96947866     -0.38461753     -1.42055721
C       1.94245735      0.75921464     -1.59151906
N       1.66426223      1.54080934     -0.36419602
C       0.55849255      0.94376787      0.40869577
C       0.06075994      1.84180500      1.55607879
C      -1.08693076      1.22251489      2.29776658
C      -1.03335478      0.61723409      3.53807565
N      -2.28861879      0.17450779      3.85642827
C      -3.16777825      0.46652205      2.84005090
C      -4.53489064      0.19860659      2.72416102
C      -5.17908321      0.60836594      1.55150577
C      -4.48833343      1.26305302      0.52224648
C      -5.21770351      1.68428470     -0.72684848
S      -4.64541570      0.82652425     -2.20901374
O      -5.61632975      1.11666389     -3.24857278
O      -3.24733727      1.13323216     -2.43357496
N      -4.77752317     -0.81967546     -1.87169991
C      -3.73204488     -1.48449135     -1.08005134
C      -6.11878796     -1.39193240     -1.70111792
C      -3.12271913      1.55433157      0.69091595
C      -2.44493078      1.13390822      1.85381361
C       2.89245526      1.68741064      0.46090825
C       4.20519683      1.47254746     -0.32347450
H       6.89452347     -2.49064780     -2.57884141
H       5.59140709     -2.29888967     -3.76840173
H       5.99741703     -0.93935827     -2.71021992
H       6.03006338     -4.03190095      0.00470397
H       6.09691893     -1.16457087      2.95624098
H       2.52950356     -1.14156287     -0.75694949
H       3.13056930     -0.84613221     -2.40065228
H       1.01618252      0.36047436     -2.02366175
H       2.32745736      1.46066739     -2.34407754
H      -0.28915219      0.77242086     -0.26767991
H       0.84413799     -0.04266008      0.79748536
H       0.87269039      2.04164615      2.26563973
H      -0.25273037      2.81425146      1.15722416
H      -0.20702917      0.46600456      4.21995876
H      -2.53750680     -0.30338006      4.71129916
H      -5.08191866     -0.31058108      3.51061010
H      -6.24408290      0.40302619      1.45186356
H      -5.07651940      2.75642729     -0.90209447
H      -6.29432230      1.49922081     -0.64844697
H      -3.55805162     -2.48471444     -1.49057517
H      -4.03336095     -1.59312598     -0.03635402
H      -2.77644732     -0.95680585     -1.12422171
H      -6.08125003     -2.47613611     -1.85093251
H      -6.82061575     -0.99383376     -2.43937668
H      -6.50265732     -1.19195449     -0.69718685
H      -2.56931629      2.08567247     -0.08109592
H       2.88114790      0.98350188      1.30352305
H       2.89699087      2.69850950      0.88542867
H       5.07440004      1.71196804      0.30114472
H       4.25126838      2.18982716     -1.15391952
