44
O=c1c2ccc3c(=O)n4c5ccccc5nc4c4ccc(c2c34)c2nc3ccccc3n12
O       3.33240605      2.68426133     -1.06258642
C       2.75615138      1.68648023     -0.64683108
C       1.26941235      1.60471860     -0.62342928
C       0.49577120      2.67735303     -1.08068796
C      -0.89412261      2.58430228     -1.05179909
C      -1.49836529      1.41941687     -0.56591429
C      -2.98242662      1.30227863     -0.52760210
O      -3.70318643      2.21322921     -0.91639999
N      -3.56530517      0.12776186     -0.03749086
C      -4.89142885     -0.22622967      0.10169865
C      -6.09709217      0.42875807     -0.18294504
C      -7.28168031     -0.26095060      0.09861874
C      -7.25939980     -1.54683424      0.64007717
C      -6.04480143     -2.18500038      0.91771355
C      -4.84624137     -1.50967069      0.64230266
N      -3.55227749     -1.92964585      0.82867341
C      -2.80027517     -0.93216480      0.41435381
C      -1.33968921     -0.85374378      0.39214820
C      -0.55405317     -1.91781929      0.84589654
C       0.83739206     -1.82466140      0.81698722
C       1.45479489     -0.66665071      0.33408896
C       0.67631569      0.42011682     -0.12915367
C      -0.73278680      0.32577750     -0.09987379
C       2.91246266     -0.54969867      0.29564826
N       3.80715352     -1.43693022      0.67575947
C       5.02479480     -0.84880188      0.43719974
C       6.31300841     -1.35763722      0.66093756
C       7.41921557     -0.56409167      0.33508081
C       7.24755172      0.71178788     -0.20327587
C       5.97100224      1.23671718     -0.43369967
C       4.87617255      0.42771342     -0.10125411
N       3.51009484      0.60145895     -0.18450851
H       0.97167081      3.58154615     -1.45778707
H      -1.50144389      3.41597111     -1.40639198
H      -6.11981584      1.42965601     -0.60444587
H      -8.23745793      0.21651931     -0.10945206
H      -8.19464289     -2.06090385      0.84955347
H      -6.02176742     -3.18437794      1.33857189
H      -1.02531503     -2.82452172      1.22408476
H       1.44050083     -2.65943250      1.17285352
H       6.44076377     -2.35000198      1.07962195
H       8.42247337     -0.94837416      0.50427595
H       8.12175996      1.31177288     -0.44936933
H       5.84270621      2.23054589     -0.85300671
