9
NC(=O)C(Cl)Cl
N      -1.16748091     -0.53818919     -0.48218236
C      -0.25353452     -0.35730270      0.52389654
O      -0.44291954     -0.88803975      1.61764776
C       0.98032524      0.48858677      0.21613709
Cl      0.47227108      2.07859012     -0.39800691
Cl      1.97936008     -0.35164095     -0.98763433
H      -2.01055198     -1.05590661     -0.26939202
H      -1.12482978     -0.01300473     -1.34703535
H       1.56736033      0.63690704      1.12656961
