34
CCCCN(C)N=Nc1ccc(C(=O)O)cc1
C      -5.03088882     -0.99358663     -0.16253772
C      -3.69932191     -1.26409387      0.52051380
C      -2.76352968     -0.05400391      0.53229905
C      -2.31031679      0.37028022     -0.86677052
N      -1.30590567      1.43876247     -0.84369837
C      -1.75767532      2.78751638     -0.54836308
N      -0.01513211      1.18332573     -0.45073300
N       0.33264847     -0.00204874     -0.62003922
C       1.65806148     -0.17631573     -0.19206686
C       1.92018896     -0.78979353      1.03773360
C       3.23616823     -0.99501632      1.46368872
C       4.30711281     -0.59414133      0.65503060
C       5.68620292     -0.83140743      1.14634770
O       5.98597625     -1.35085804      2.20532019
O       6.62762731     -0.40610466      0.28568292
C       4.05176138      0.00981197     -0.58210940
C       2.73286342      0.21198313     -1.00182387
H      -4.90187539     -0.80447987     -1.23222003
H      -5.69004742     -1.86127446     -0.05696780
H      -5.53358206     -0.13002504      0.28423440
H      -3.89379445     -1.56311301      1.55742958
H      -3.20513815     -2.11289007      0.03368105
H      -3.25683414      0.78608937      1.03583337
H      -1.88719499     -0.30476495      1.14235126
H      -3.15938891      0.74165564     -1.45159906
H      -1.90779753     -0.48437324     -1.42232049
H      -0.95065778      3.49660136     -0.75636175
H      -2.04401700      2.85477879      0.50457284
H      -2.61207081      3.03071912     -1.18590008
H       1.09136167     -1.10445861      1.66698774
H       3.42079341     -1.46866422      2.42600697
H       7.47139626     -0.62347352      0.73471053
H       4.86780565      0.32549619     -1.22744209
H       2.53520074      0.67786683     -1.96437185
