42
CC(O)C(=O)NCCCCCCNC(=O)C(C)O
C       6.34888712      1.23491331      0.99962750
C       5.07370589      0.50725732      1.39230812
O       5.00431350     -0.74501225      0.70573067
C       3.81373157      1.34546481      1.10897525
O       3.82993209      2.54836069      0.87399684
N       2.65991685      0.58912459      1.17140666
C       1.35527091      1.13265249      0.86688232
C       1.09835034      1.24626389     -0.63631162
C       1.19538324     -0.07326209     -1.41197105
C       0.27833162     -1.20077335     -0.92944757
C      -1.20676965     -0.84173615     -0.98360751
C      -2.07841119     -2.03331786     -0.59037308
N      -3.48610450     -1.69421396     -0.62145220
C      -4.09798459     -1.04736044      0.42861921
O      -3.52345494     -0.75974756      1.47836657
C      -5.58899282     -0.72277527      0.22776067
C      -5.80178825      0.25360395     -0.91712289
O      -6.14583523     -0.14824874      1.40850371
H       6.46071051      2.17207416      1.55384742
H       6.35176667      1.46971988     -0.07079557
H       7.22476243      0.60600235      1.19051668
H       5.09106825      0.29371313      2.46673986
H       5.08275092     -0.54667982     -0.24498850
H       2.78097930     -0.41812936      1.22513231
H       0.61118431      0.49261923      1.35027655
H       1.28068002      2.12731104      1.32086729
H       1.82055907      1.94721318     -1.07368908
H       0.11015158      1.69372647     -0.79323757
H       0.97734352      0.13256391     -2.46757158
H       2.23132629     -0.43306906     -1.38242666
H       0.45781055     -2.07847861     -1.56315038
H       0.55237144     -1.49753018      0.08941213
H      -1.41555415     -0.00181151     -0.31139741
H      -1.47421461     -0.51036063     -1.99465151
H      -1.93167529     -2.86489074     -1.28756429
H      -1.81979817     -2.38074574      0.41620135
H      -4.00264909     -1.86357920     -1.47491426
H      -6.12132837     -1.66022063      0.03551657
H      -5.46888737     -0.15848791     -1.87424661
H      -6.86055788      0.52064831     -1.00324083
H      -5.25193323      1.18492307     -0.73950455
H      -5.41534865     -0.11283169      2.06097704
