49
O=C(CCCN1CCC(O)(c2ccccc2)CC1)c1ccccc1
O      -4.32843044     -1.16860355      1.97322465
C      -3.92951465     -0.52430262      1.00451161
C      -2.69974036     -0.93009442      0.21057397
C      -2.03929183     -2.18979709      0.77567473
C      -0.85729728     -2.67116759     -0.07603712
N       0.18285877     -1.64956581     -0.29867157
C       1.12503332     -2.11945620     -1.32948355
C       2.18045206     -1.06062287     -1.65190213
C       2.95736638     -0.61986255     -0.40019779
O       3.70957249     -1.74766221      0.08537372
C       3.97122489      0.47552695     -0.75080682
C       5.04265728      0.17042953     -1.61537365
C       5.99585422      1.13056193     -1.96138749
C       5.90015471      2.41954450     -1.44896074
C       4.85340449      2.74505821     -0.59151509
C       3.89868968      1.78305694     -0.24468746
C       1.95253393     -0.24541739      0.70324045
C       0.91978612     -1.34999115      0.94037367
C      -4.67721003      0.70185735      0.58498869
C      -5.81373638      1.07395320      1.31715689
C      -6.54393592      2.21016003      0.96288491
C      -6.14419766      2.98294529     -0.12522750
C      -5.01559026      2.62132752     -0.85933904
C      -4.28201992      1.48430185     -0.50760897
H      -3.00301360     -1.11654630     -0.82577409
H      -1.98726126     -0.09867534      0.23921245
H      -2.77928385     -2.99950684      0.82011069
H      -1.72532659     -2.01617524      1.81158028
H      -0.42675396     -3.57304113      0.37840522
H      -1.26945097     -2.97801185     -1.04662988
H       0.57807801     -2.33418861     -2.25611793
H       1.61104079     -3.05452489     -1.02087762
H       1.69412544     -0.19270807     -2.11758256
H       2.85796728     -1.48771700     -2.40176702
H       4.47619275     -1.39242566      0.56929665
H       5.14262741     -0.83411582     -2.02468806
H       6.81150942      0.86913062     -2.63048895
H       6.63954438      3.16950623     -1.71667740
H       4.77663813      3.75241793     -0.18950715
H       3.10219325      2.08846813      0.42811753
H       1.41156312      0.67262862      0.43910316
H       2.47800628     -0.05841319      1.64857608
H       1.40635017     -2.24886270      1.34056456
H       0.23357938     -0.98578933      1.71258574
H      -6.13656105      0.47847528      2.16946329
H      -7.42368422      2.48964758      1.53727075
H      -6.71277405      3.86770640     -0.40123580
H      -4.70542913      3.22624667     -1.70823836
H      -3.40850073      1.23429468     -1.10252077
