36
CCOP(=S)(OCC)Oc1ncn(-c2ccccc2)n1
C      -3.90735760      3.12332470      1.12620345
C      -3.20955518      2.69825026     -0.14921438
O      -3.29342781      1.28701778     -0.25908951
P      -2.20304266      0.51636484     -1.18614334
S      -2.22707129      1.03285571     -3.06040304
O      -2.56768862     -1.02176792     -0.83000781
C      -3.81704285     -1.53687652     -1.25449404
C      -4.02827204     -2.88765909     -0.60202108
O      -0.85580124      0.76796910     -0.34288109
C       0.27189429      0.10833690     -0.59449827
N       0.47033815     -0.87047764     -1.51101797
C       1.73887107     -1.16452562     -1.33837933
N       2.28552436     -0.38531439     -0.34547096
C       3.61257832     -0.37930745      0.15525264
C       4.58515229     -1.24936982     -0.35720272
C       5.88611214     -1.21944094      0.15424308
C       6.22194299     -0.32774133      1.17185946
C       5.25869213      0.53808245      1.68500892
C       3.95690846      0.51474267      1.18083916
N       1.32878822      0.44495941      0.14020677
H      -4.95199314      2.79616943      1.12236419
H      -3.87841389      4.21033429      1.24415648
H      -3.43224068      2.66059963      1.99754065
H      -2.16439229      3.02256645     -0.12857571
H      -3.70399830      3.15170271     -1.01323397
H      -4.62271819     -0.85399117     -0.96775408
H      -3.81531555     -1.64637200     -2.34278374
H      -3.22079442     -3.57628251     -0.87111147
H      -4.98242783     -3.32461305     -0.90914325
H      -4.01816449     -2.79378184      0.48851694
H       2.29024306     -1.91054325     -1.89021945
H       4.37262550     -1.96078346     -1.14934320
H       6.64181313     -1.89345452     -0.24296278
H       7.23571570     -0.30681393      1.56492069
H       5.51995977      1.23400906      2.47822143
H       3.22255846      1.20183108      1.59822841
