16
O=c1nc[nH]c2cccnc12
O       1.52705174      2.74626262      0.38729451
C       1.45997019      1.53456467      0.20719687
N       2.60569842      0.76033704      0.07406621
C       2.46346783     -0.50626417     -0.11310649
N       1.29890454     -1.20664353     -0.20012517
C       0.09862763     -0.51224727     -0.07806918
C      -1.14211994     -1.13979162     -0.15303700
C      -2.30437553     -0.37940679     -0.02170523
C      -2.18780567      0.98829718      0.18098079
N      -1.00761689      1.63421641      0.25959657
C       0.10981819      0.86959429      0.12831718
H       3.35587137     -1.14542841     -0.22219332
H       1.29424176     -2.20584635     -0.34934247
H      -1.21983713     -2.21135285     -0.31204997
H      -3.28395180     -0.84353611     -0.07620376
H      -3.06794471      1.61724489      0.28838044
