50
C=C(C)C(=O)OCC(CC)(COC(=O)C(=C)C)COC(=O)C(=C)C
C      -0.35303799      2.08162377      3.30505539
C      -0.29751252      2.94599037      2.27745979
C      -0.40103002      4.42889812      2.47103132
C      -0.12890533      2.50461942      0.86214356
O      -0.08275621      3.28119241     -0.08105851
O      -0.03662071      1.15456730      0.77264859
C       0.12298192      0.65316682     -0.56418670
C       0.17632075     -0.89333988     -0.53913039
C       0.42282103     -1.43635403     -1.97979037
C      -0.66908554     -1.18836029     -3.01222361
C       1.35206688     -1.35949785      0.36278852
O       2.59490494     -0.83983702     -0.13282310
C       3.67940691     -1.17172856      0.61171447
O       3.66024233     -1.86345851      1.61963781
C       4.92971532     -0.58336107      0.04876089
C       4.94023880      0.16384773     -1.06890414
C       6.17813148     -0.88721461      0.82188051
C      -1.11735891     -1.47083490      0.08601070
O      -2.28178108     -0.90592029     -0.53115797
C      -3.45986474     -1.38164861     -0.05679624
O      -3.58084000     -2.23994723      0.80477174
C      -4.61925281     -0.73946416     -0.74137179
C      -4.48277004      0.33337356     -1.54059676
C      -5.94995396     -1.37207916     -0.46220012
H      -0.47510387      2.43011029      4.32511553
H      -0.27772313      1.00792053      3.16836794
H       0.50417453      4.92770081      2.10850414
H      -0.52541980      4.69617873      3.52535014
H      -1.26249671      4.82830998      1.92563932
H      -0.71726279      1.00720543     -1.17200499
H       1.04831186      1.06233349     -0.98842546
H       1.35231641     -1.00367238     -2.37347524
H       0.59228021     -2.52087276     -1.93014842
H      -1.57366756     -1.75850368     -2.78298040
H      -0.92488791     -0.12985370     -3.09445013
H      -0.32519733     -1.52284234     -3.99837630
H       1.20763612     -1.01600617      1.39514255
H       1.40495524     -2.45601688      0.36894868
H       5.86426752      0.58235889     -1.45559230
H       4.03765374      0.38599770     -1.63071510
H       6.33788912     -1.96826588      0.88622398
H       6.10814171     -0.48271145      1.83712146
H       7.06636629     -0.45108031      0.35246844
H      -1.13314764     -2.56253935     -0.03335464
H      -1.15354502     -1.24042130      1.15948859
H      -3.52057719      0.80026952     -1.73006792
H      -5.34222807      0.78612548     -2.02475025
H      -5.95396489     -2.41165703     -0.80771198
H      -6.16944388     -1.35396777      0.61055257
H      -6.76538752     -0.85033318     -0.97453382
