31
Cc1cccc(CC(C)(C)CO)c1
C       3.74018296      1.38467672     -0.06457943
C       2.75954520      0.25317681      0.02044473
C       3.13502631     -0.97092998      0.58342197
C       2.23251297     -2.03318373      0.62606064
C       0.94928688     -1.88370256      0.10026651
C       0.55396774     -0.66925357     -0.47382324
C      -0.83411522     -0.50161439     -1.05147946
C      -1.93758617      0.00185574     -0.07643991
C      -3.25615895      0.08874594     -0.87762913
C      -2.15317741     -0.98425937      1.08632092
C      -1.61330915      1.39279849      0.50832066
O      -1.41689738      2.35131974     -0.52496372
C       1.47324942      0.38948571     -0.51860242
H       4.29376569      1.33010889     -1.00695133
H       3.22699228      2.35055242     -0.00998364
H       4.45216333      1.34851647      0.76667805
H       4.13491225     -1.10568520      0.98901811
H       2.53147776     -2.98139489      1.06478864
H       0.26024450     -2.72417094      0.13657146
H      -0.76691500      0.17179975     -1.91733793
H      -1.14109840     -1.46740680     -1.47789740
H      -4.07613295      0.45940101     -0.25204377
H      -3.16234244      0.76253972     -1.73643552
H      -3.55050722     -0.89530762     -1.26020051
H      -1.28446666     -1.02329734      1.75157852
H      -3.01332917     -0.68844762      1.69821909
H      -2.34425221     -1.99776502      0.71647126
H      -2.43817303      1.74550895      1.13846444
H      -0.71314461      1.36618021      1.13114230
H      -1.22180470      3.19850383     -0.08872543
H       1.18008337      1.33124862     -0.98067446
