32
CCCCC1(CCO)C(=O)NC(=S)NC1=O
C       4.12117357      0.71488241      0.76589408
C       3.13078225     -0.35818082      0.34219757
C       1.70438666      0.19217763      0.27289699
C       0.71223194     -0.89961293     -0.15500507
C      -0.77608996     -0.45495016     -0.27226359
C      -1.60966690     -1.69292442     -0.71239026
C      -3.07543825     -1.39489242     -1.03298844
O      -3.69798227     -0.67704120      0.01966111
C      -1.23918348      0.00341978      1.10129429
O      -1.50967132     -0.77880508      2.01329182
N      -1.29543695      1.35355990      1.31710686
C      -1.22812460      2.31234916      0.35799391
S      -1.42136513      3.92021993      0.73201730
N      -1.00391468      1.90897770     -0.91939062
C      -0.87524470      0.61472192     -1.34366288
O      -0.78495093      0.36640480     -2.54542531
H       3.87279871      1.10879824      1.75658939
H       4.12471741      1.54787709      0.05565092
H       5.13336005      0.30075104      0.80890871
H       3.17510082     -1.18978857      1.05502270
H       3.42590406     -0.75303543     -0.63690681
H       1.67937140      1.02560876     -0.43762468
H       1.42963922      0.58894268      1.25627071
H       1.04364540     -1.30088506     -1.12264529
H       0.78288516     -1.72830312      0.56297566
H      -1.58127177     -2.44772349      0.08468672
H      -1.15909915     -2.16153915     -1.59689174
H      -3.62704960     -2.32687875     -1.19454415
H      -3.16731668     -0.79984095     -1.94626305
H      -3.68175258     -1.24665099      0.81359481
H      -1.57240860      1.64047740      2.24740519
H      -1.03002911      2.61188410     -1.64745687
