28
CC(C)OC(=O)c1c(C(=O)[O-])cccc1[N+](=O)[O-]
C       3.25982647     -0.34921251     -0.48595738
C       2.26769965      0.78870231     -0.69680682
C       2.76716743      2.06987884     -0.04054144
O       1.01886796      0.45280506     -0.07589847
C       0.15004999     -0.23313331     -0.85494557
O       0.36898266     -0.77536907     -1.92664242
C      -1.11212509     -0.39367047     -0.11312092
C      -1.88417536      0.71019344      0.29011337
C      -1.50271569      2.12338221     -0.05285545
O      -0.96691972      2.31618418     -1.18408394
O      -1.79050696      3.00894451      0.80910851
C      -3.07575862      0.47972422      1.01177021
C      -3.51508022     -0.81333422      1.30257132
C      -2.76299934     -1.90543682      0.88378150
C      -1.56647484     -1.68225260      0.18586549
N      -0.77697717     -2.84644374     -0.16569994
O       0.35516155     -2.93949615      0.32961048
O      -1.33122738     -3.71597233     -0.85508086
H       2.90262341     -1.27027556     -0.95792837
H       4.23945322     -0.10402780     -0.90746077
H       3.38082770     -0.57064564      0.58024118
H       2.12943525      0.97867513     -1.76853719
H       3.72458303      2.38745919     -0.46456006
H       2.88724827      1.93784408      1.04052749
H       2.03948962      2.87690585     -0.17911226
H      -3.66639129      1.33914274      1.33289833
H      -4.44137601     -0.95660334      1.85219324
H      -3.09868850     -2.91396819      1.11055073
