55
O=C(NCc1ccc(CC(F)(F)F)cc1)C1c2ccccc2C(=O)N1CCc1ccccn1
O      -1.60318880     -2.78765417      1.21823979
C      -0.67028241     -2.35183968      0.54421251
N      -0.83016095     -1.87349977     -0.73892752
C      -2.13149289     -1.63443721     -1.31089867
C      -2.65870756     -0.27855618     -0.91912963
C      -2.21586738      0.87949743     -1.56977215
C      -2.70082944      2.13475028     -1.19371722
C      -3.63368701      2.25663593     -0.15631015
C      -4.16213473      3.61119957      0.24778729
C      -3.22771999      4.40033707      1.14676534
F      -3.81378007      5.56959978      1.50592285
F      -2.07067286      4.71747684      0.52485146
F      -2.93102358      3.73942796      2.28564227
C      -4.05790843      1.10147462      0.51153124
C      -3.57245584     -0.15264413      0.13506375
C       0.78942828     -2.39012408      1.04478335
C       1.36629228     -3.77572776      0.98299749
C       0.90057333     -4.95961000      1.53228554
C       1.65247175     -6.12340907      1.33483528
C       2.85477753     -6.09281225      0.60513519
C       3.32321192     -4.89641809      0.06089145
C       2.55745616     -3.76324192      0.26316462
C       2.82341215     -2.38811061     -0.16579703
O       3.84782368     -2.02617914     -0.71156991
N       1.73084017     -1.61445232      0.21370024
C       1.82331054     -0.16209974      0.34483509
C       2.15929838      0.54978171     -0.96854492
C       2.17458016      2.04169015     -0.77352422
C       3.35679267      2.69996323     -0.44272436
C       3.32260642      4.07516176     -0.23272457
C       2.11540859      4.75168965     -0.35240442
C       0.98704750      4.02060763     -0.68133642
N       0.98943051      2.68594627     -0.89475664
H      -0.02599626     -1.43595675     -1.17105258
H      -2.03341757     -1.69814893     -2.40024973
H      -2.82378283     -2.42515614     -0.99976575
H      -1.48087394      0.81727878     -2.36961619
H      -2.33087758      3.01527707     -1.71559164
H      -4.37556104      4.19335347     -0.65728771
H      -5.12714568      3.48842735      0.75497487
H      -4.76564883      1.16353182      1.33565311
H      -3.90363330     -1.03695460      0.67792845
H       0.83849502     -2.00068553      2.06809807
H      -0.02711679     -4.99186517      2.09829898
H       1.30354107     -7.06579021      1.75299294
H       3.42445620     -7.00931875      0.46804638
H       4.25253157     -4.85040368     -0.49693255
H       2.58465077      0.05109171      1.10503433
H       0.86185441      0.20292271      0.72608901
H       1.41408514      0.29658655     -1.73267241
H       3.12513266      0.22780544     -1.37091482
H       4.29068214      2.15430737     -0.34725803
H       4.23035758      4.61285865      0.02551309
H       2.05305702      5.82176623     -0.19103792
H       0.02036013      4.50464882     -0.78263856
