76
CCC(=O)O[C@](Cc1ccccc1)(c1ccccc1)[C@H](C)CN(C)C.O=S(=O)(O)c1ccc2ccccc2c1
C       2.01200626     -0.62866868      4.13358285
C       1.22396888      0.30022862      3.22731256
C       0.86424688     -0.35579961      1.91538344
O       1.16102980     -1.49717684      1.59883486
O       0.16601390      0.52614643      1.16210642
C      -0.32265111      0.24801224     -0.18606552
C       0.78058487     -0.38266830     -1.11347043
C       2.10862741      0.35414325     -1.22372339
C       3.22866650     -0.09050902     -0.50444636
C       4.45353277      0.57325493     -0.60041126
C       4.58012225      1.68717682     -1.42486336
C       3.48495495      2.12914201     -2.16205288
C       2.26074777      1.46277075     -2.06814796
C      -0.72358213      1.63220054     -0.79025943
C      -0.43079115      2.83881338     -0.12602655
C      -0.78958680      4.07382602     -0.67335028
C      -1.44634989      4.13270350     -1.89804454
C      -1.74007958      2.95700901     -2.58035018
C      -1.38014568      1.72119218     -2.03555290
C      -1.63891338     -0.64477933     -0.09955105
C      -2.69476741     -0.00892423      0.83272488
C      -1.41769988     -2.11832732      0.33815850
N      -2.61991163     -2.97499286      0.19898216
C      -2.90433488     -3.29823935     -1.20153757
C      -2.43145364     -4.21814912      0.95554551
O       4.00805417      0.01967152     -1.29204473
S       3.33037068      0.44064914     -0.08396313
O       3.57292093      1.72894895      0.52329196
O       3.68198833     -0.69874714      1.00345676
C       1.58655795      0.28304238     -0.33643980
C       1.06885527      0.24508132     -1.63077309
C      -0.30744994      0.10007849     -1.81089680
C      -1.16999597     -0.00976279     -0.70621262
C      -2.55617925     -0.15447036     -0.87481049
C      -3.40245054     -0.26093696      0.23027490
C      -2.87482364     -0.22362184      1.51759287
C      -1.49931059     -0.08070222      1.70451657
C      -0.63399896      0.02711530      0.60428731
C       0.75008755      0.17161013      0.77834988
H       2.25507744     -0.12678707      5.07520215
H       1.43841914     -1.53239019      4.36492153
H       2.94911840     -0.93913404      3.65938091
H       1.82197073      1.19281340      3.01525044
H       0.29831188      0.59871332      3.73058984
H       0.38441456     -0.51158827     -2.13025704
H       1.01827197     -1.40058387     -0.79133755
H       3.16287367     -0.97120802      0.13066295
H       5.30907961      0.21369416     -0.03558135
H       5.53276646      2.20412762     -1.50094818
H       3.58080351      2.99270465     -2.81429135
H       1.42863668      1.82468660     -2.66609446
H       0.08960081      2.83937199      0.82883007
H      -0.55146183      4.99022800     -0.13937360
H      -1.72552359      5.09378434     -2.32075683
H      -2.24812725      2.99931278     -3.54029106
H      -1.61624926      0.82740871     -2.60812403
H      -2.07414528     -0.67817876     -1.10293558
H      -3.62450287     -0.58788224      0.83200102
H      -2.96184930      1.00378123      0.51668856
H      -2.33579231      0.04224281      1.86608566
H      -0.59067709     -2.57988417     -0.20883674
H      -1.14959446     -2.10830183      1.39985346
H      -3.78144514     -3.95192836     -1.27239794
H      -3.15268979     -2.40203244     -1.77741625
H      -2.06244374     -3.80324877     -1.68903566
H      -2.28755365     -4.00379099      2.02046609
H      -3.32246854     -4.85198093      0.88508939
H      -1.56905587     -4.79233469      0.59787807
H       4.35887815     -1.28459490      0.60441608
H       1.72060166      0.32866041     -2.49773050
H      -0.70634265      0.07475174     -2.82325484
H      -2.98956886     -0.18464673     -1.87239266
H      -4.47405044     -0.37079737      0.08491245
H      -3.53377412     -0.30361001      2.37866065
H      -1.10837393     -0.05214730      2.71958772
H       1.17800422      0.20442823      1.77917152
