110
CC(C)(C)c1cc(CCC(=O)NCCCCCCNC(=O)CCc2cc(C(C)(C)C)c(O)c(C(C)(C)C)c2)cc(C(C)(C)C)c1O
C       9.19796635      1.94208358      3.02581344
C       9.70919227      1.49737071      1.63656519
C       9.77634369      2.78882033      0.77742637
C      11.16320935      0.98466209      1.74613764
C       8.79313704      0.39954137      1.03780737
C       8.15776145      0.59326343     -0.19969885
C       7.33501412     -0.38331707     -0.76602387
C       6.64002102     -0.12563069     -2.08285586
C       5.36171854      0.68067585     -1.87513229
C       4.59773903      0.87301458     -3.16696016
O       4.91387366      0.35291318     -4.23145502
N       3.49370639      1.69015848     -3.01116132
C       2.54509662      1.86380557     -4.09309911
C       1.64564560      3.08342014     -3.90107189
C       0.78099777      3.07898385     -2.63463217
C      -0.16370138      1.87983705     -2.53333834
C      -1.06671592      1.99148252     -1.30347495
C      -2.01937922      0.80098335     -1.20045112
N      -2.87473379      0.90383918     -0.03712286
C      -4.01236877      1.68350492     -0.04152336
O      -4.38032055      2.32319396     -1.02111575
C      -4.71325526      1.72114075      1.30360186
C      -6.16072910      2.20190760      1.21049793
C      -7.10982317      1.09979532      0.79703336
C      -7.75308000      0.32368723      1.76450034
C      -8.62853710     -0.71773497      1.41476195
C      -9.33860592     -1.55251534      2.51237736
C     -10.87448622     -1.43385917      2.37490841
C      -9.00905712     -1.09044299      3.95823572
C      -8.90958305     -3.03532084      2.43217672
C      -8.81667571     -0.96084400      0.02761154
O      -9.62201251     -2.02101386     -0.29197355
C      -8.21289263     -0.17974034     -0.99173858
C      -8.46012838     -0.37411105     -2.51091025
C      -7.68786857     -1.61334712     -3.01414748
C      -7.96609645      0.82083625     -3.37748856
C      -9.96696714     -0.50409414     -2.84123435
C      -7.34610864      0.84077824     -0.55736281
C       7.12052415     -1.58273843     -0.07831658
C       7.70775137     -1.84841703      1.17323834
C       7.38212389     -3.17802316      1.90357775
C       8.57322014     -4.15226071      1.77818348
C       7.03144911     -2.94937011      3.39369543
C       6.15002220     -3.92066434      1.31049395
C       8.56502357     -0.84145217      1.68756007
O       9.22964117     -1.03776053      2.86815129
H       8.15221397      2.26659926      2.97235359
H       9.78630830      2.78313686      3.41295498
H       9.25625336      1.15226461      3.77978568
H       8.78838379      3.24817517      0.65972582
H      10.18788324      2.59130774     -0.21916683
H      10.42458940      3.54042333      1.24372734
H      11.27407281      0.15416737      2.44912140
H      11.53345878      0.63966348      0.77301099
H      11.83516733      1.77876447      2.09321730
H       8.29227244      1.51447742     -0.75966747
H       6.41811473     -1.07974722     -2.57794509
H       7.32163864      0.40385700     -2.76124838
H       5.59946966      1.66813105     -1.45944297
H       4.69981032      0.16671383     -1.16550198
H       3.17805923      1.86089372     -2.06512437
H       1.95940866      0.94256498     -4.17566575
H       3.10348820      1.97191881     -5.03010805
H       0.99115327      3.17121788     -4.77693468
H       2.26713378      3.98707129     -3.88253867
H       1.41835846      3.12282782     -1.74365089
H       0.18741171      4.00219195     -2.63119497
H      -0.78133774      1.82094750     -3.43762625
H       0.41301294      0.95046149     -2.46842764
H      -1.63927369      2.92550274     -1.34888701
H      -0.45308722      2.04843798     -0.39595595
H      -2.64688121      0.73464421     -2.09652164
H      -1.45799684     -0.13489244     -1.10728155
H      -2.58127554      0.45902561      0.82324224
H      -4.14446205      2.42667075      1.92350205
H      -4.65737711      0.73428794      1.77991787
H      -6.47392781      2.57824574      2.19330192
H      -6.26125260      3.05331354      0.52553116
H      -7.55106009      0.55967240      2.80523393
H     -11.25846903     -1.86273125      1.44543068
H     -11.18978628     -0.38409650      2.40388065
H     -11.38527160     -1.95701723      3.19196203
H      -9.30956251     -0.04953524      4.12778257
H      -7.93900272     -1.18278765      4.17900781
H      -9.53972465     -1.70055336      4.69996313
H      -9.22117165     -3.52526457      1.50545762
H      -7.81962322     -3.13101004      2.50351950
H      -9.34610664     -3.61707103      3.25327251
H      -9.28604344     -2.43148288     -1.10087375
H      -6.61176562     -1.51127301     -2.82009615
H      -7.81769123     -1.74549346     -4.09605210
H      -8.01079500     -2.54529716     -2.54162241
H      -8.42062499      1.76606202     -3.05568093
H      -8.22902278      0.67773012     -4.43324915
H      -6.87583244      0.92967149     -3.34434238
H     -10.53078480      0.34399283     -2.43456878
H     -10.13325765     -0.52175279     -3.92435193
H     -10.42467138     -1.41897633     -2.45903867
H      -6.82697604      1.47369725     -1.27343200
H       6.46867891     -2.30925208     -0.55536544
H       8.33167456     -5.12536059      2.22287362
H       8.83254586     -4.32258025      0.72689674
H       9.47499221     -3.79401057      2.27860632
H       7.88702571     -2.63810307      3.99644973
H       6.24938858     -2.18884722      3.50064171
H       6.66198490     -3.87166920      3.86022211
H       6.33501132     -4.27390913      0.28878213
H       5.25901160     -3.28140120      1.30114527
H       5.90318924     -4.81208938      1.90040982
H       9.55489781     -1.94956828      2.87834309
