94
CN1C[C@H](C(=O)N[C@]2(C)O[C@@]3(O)[C@@H]4CCCN4C(=O)[C@H](Cc4ccccc4)N3C2=O)C=C2c3cccc4[nH]cc(c34)C[C@H]21.O=C(O)C(O)C(O)C(=O)O
C       4.18916302      2.95726566     -1.93106153
N       3.81914117      2.71455687     -0.53536799
C       2.38658014      2.38092639     -0.41944608
C       2.00117585      1.03493109     -1.06109188
C       0.61529913      0.61095830     -0.56379554
O      -0.36645170      0.62296818     -1.30380045
N       0.54644707      0.24639179      0.76346701
C      -0.64001700     -0.34548408      1.34569344
C      -0.41376591     -0.62354138      2.83101825
O      -0.91038708     -1.59466793      0.70563823
C      -2.16886344     -1.48692964      0.04444153
O      -1.97187341     -1.48565889     -1.34845843
C      -3.11560798     -2.62522061      0.47816848
C      -2.74922290     -4.02464603     -0.02170862
C      -4.09975335     -4.74123883     -0.02366160
C      -5.05816224     -3.66128665     -0.50872706
N      -4.48169346     -2.42953244     -0.00984375
C      -5.00284200     -1.18451416     -0.31692350
O      -6.10745744     -1.07600553     -0.84777817
C      -4.16840370      0.05011396      0.15273441
C      -4.32346468      1.21966158     -0.83928693
C      -5.43037979      2.17623501     -0.45646177
C      -6.68694679      2.10110708     -1.07042755
C      -7.70608089      2.98356341     -0.70698036
C      -7.47872034      3.94811183      0.27360282
C      -6.23368328      4.02728947      0.89538680
C      -5.21346699      3.14598753      0.53341463
N      -2.74897281     -0.24042375      0.39730980
C      -1.91245049      0.49491670      1.19618035
O      -2.13866463      1.59048560      1.68423228
C       3.00977837     -0.05590126     -0.78113619
C       4.19400313      0.20100915     -0.19072827
C       5.10215871     -0.89751882      0.22554204
C       4.81394998     -2.26384424      0.35037507
C       5.78196030     -3.16493718      0.81641559
C       7.06792372     -2.74222953      1.18346926
C       7.34339060     -1.37931500      1.05517349
N       8.47516769     -0.63801828      1.32015056
C       8.26417361      0.68749590      1.00951111
C       6.97464598      0.80059927      0.54515314
C       6.39418252     -0.48595248      0.58472352
C       6.18600066      1.94319576      0.01020269
C       4.64192394      1.66289321      0.13564788
O       1.62371643      1.52639615      1.58450858
C       1.60859764      0.81214902      0.59584657
O       2.74361478      0.22774206      0.14734207
C       0.38821887      0.44342076     -0.23885248
O       0.73183668     -0.17682781     -1.48467002
C      -0.50120744     -0.48243287      0.59174013
O      -0.12998384     -1.85011114      0.37449394
C      -1.96035558     -0.23681412      0.23481661
O      -2.70523540     -1.01965427     -0.33510885
O      -2.41014087      0.97112870      0.62877228
H       3.47163688      3.63245078     -2.41162109
H       4.24196651      2.04129716     -2.52833610
H       5.15350069      3.47091675     -1.99380379
H       1.77820449      3.18239422     -0.85970064
H       2.12264609      2.39520793      0.64643258
H       1.93436969      1.14914108     -2.15053416
H       1.42447229      0.01964365      1.21349409
H      -1.29700443     -1.08616917      3.28654083
H      -0.18748969      0.29587752      3.38186561
H       0.41804300     -1.32242067      2.97554968
H      -1.58648907     -0.60293588     -1.53117471
H      -3.18472295     -2.64847158      1.57458404
H      -2.35027877     -3.99718428     -1.04213037
H      -2.01227022     -4.51680815      0.61956903
H      -4.35932666     -5.04375870      0.99831705
H      -4.10948903     -5.62950097     -0.66134569
H      -6.07710713     -3.78606838     -0.13114644
H      -5.08567266     -3.61008449     -1.60326297
H      -4.57851112      0.33019191      1.13261762
H      -3.39559561      1.80541395     -0.90271349
H      -4.49087886      0.84685564     -1.85867710
H      -6.88055720      1.34917672     -1.83396770
H      -8.67743414      2.91494917     -1.19088433
H      -8.27250796      4.63417074      0.55433069
H      -6.05429254      4.77684485      1.66161232
H      -4.24533534      3.22122613      1.02706766
H       2.71228084     -1.06418920     -1.05420150
H       3.83001508     -2.64908064      0.10143748
H       5.52723789     -4.21960740      0.90225206
H       7.80789888     -3.44700336      1.54716335
H       9.34048351     -1.01978559      1.67767620
H       9.05427945      1.41637360      1.13354196
H       6.48202929      2.06662253     -1.03767971
H       6.43918954      2.86837653      0.54103556
H       4.42697597      1.77214057      1.21164548
H       3.43680280      0.53794017      0.76889737
H      -0.10348102      1.39052607     -0.48735654
H       1.50138484     -0.74644068     -1.28152326
H      -0.40702930     -0.29821485      1.66825529
H      -0.46211005     -2.07376444     -0.51848926
H      -3.35462853      0.97495723      0.35978221
