36
BrC1CC(Br)CC(Br)CC(Br)CC(Br)CC(Br)C1
Br     -1.63678403     -4.31525159     -0.80023036
C      -0.69777879     -2.57683563     -0.69237362
C      -1.34581262     -1.75585566      0.45031490
C      -2.06369584     -0.48378049     -0.06078981
Br     -3.84173908     -1.01492472     -0.72123185
C      -2.21647427      0.59558276      1.03503522
C      -1.91870614      2.05610918      0.62256415
Br     -3.29602892      2.69014870     -0.62967426
C      -0.53790010      2.34712414     -0.00203293
C       0.65358420      2.10693116      0.93705785
Br      0.72406908      3.59274656      2.24138049
C       2.04302549      2.02965769      0.25979592
C       2.32867785      0.80307455     -0.64166659
Br      1.87788378      1.25268556     -2.49891790
C       1.57736393     -0.45238933     -0.19270136
C       1.75688094     -1.75534138     -0.97070740
Br      3.60053931     -2.39091421     -0.72421526
C       0.80613482     -2.88052521     -0.50130052
H      -0.86828090     -2.13094999     -1.67772773
H      -0.55909546     -1.45952043      1.15328043
H      -2.03787032     -2.35650223      1.05407165
H      -1.56636954     -0.08705926     -0.94801142
H      -1.53639109      0.36356648      1.86340421
H      -3.21914620      0.55340907      1.48055151
H      -2.07042718      2.69728126      1.49755741
H      -0.44103140      1.73910830     -0.90221539
H      -0.50788351      3.38622123     -0.35834026
H       0.49995893      1.23072806      1.57165200
H       2.79121426      1.98775798      1.06490459
H       2.25111907      2.96446992     -0.27721119
H       3.40921755      0.63145581     -0.67161762
H       0.52473809     -0.20399399     -0.25543788
H       1.80489877     -0.63506691      0.86597467
H       1.64207687     -1.61383081     -2.04871057
H       1.00126090     -3.13325243      0.54991158
H       1.06877154     -3.78206413     -1.07234266
