58
O=c1cc/c(=N\Nc2ccc(S(=O)(=O)[O-])c3ccccc23)c(=O)/c1=N/Nc1ccc(S(=O)(=O)[O-])c2ccccc12.[Na+].[Na+]
O      -1.44690435      1.36856800     -1.95993828
C      -0.66255989      0.87476661     -1.16165729
C       0.68726713      0.42577274     -1.56872151
C       1.61557641      0.00524134     -0.69982110
C       1.42011484      0.00174555      0.78439005
N       2.19993784     -0.51722700      1.68404525
N       3.31954799     -1.16472899      1.22677698
C       4.50114828     -0.38087529      0.96605882
C       4.65968757      0.88727021      1.54030626
C       5.81995876      1.61809550      1.31607034
C       6.84560267      1.08087303      0.52611158
S       8.33476778      2.10896315      0.27328631
O       8.36248962      2.26855766     -1.17841247
O       9.39322204      1.28052892      0.84403385
O       8.04711058      3.33437882      1.01650765
C       6.73822638     -0.21274644     -0.05815338
C       7.73973582     -0.81884963     -0.85980254
C       7.58798538     -2.09178361     -1.41333952
C       6.42362589     -2.80478994     -1.18605980
C       5.41861425     -2.23917282     -0.40279736
C       5.54567751     -0.95094949      0.17647474
C       0.14195150      0.67672947      1.25414793
O       0.08022666      1.26697251      2.31915329
C      -1.01496826      0.67393868      0.29482035
N      -2.21436003      0.42172451      0.73810380
N      -3.21000008      0.36011555     -0.19458022
C      -4.56352236      0.19261197      0.22666072
C      -4.85399821     -0.05317666      1.57672362
C      -6.16317267     -0.24936799      2.00263255
C      -7.21095833     -0.22867307      1.07572312
S      -8.90316010     -0.49099004      1.72016831
O      -9.33063413     -1.70168629      1.02043534
O      -8.71453689     -0.65708828      3.16008217
O      -9.58791256      0.73984114      1.33487354
C      -6.96977425     -0.02805740     -0.31173304
C      -7.98946572     -0.01771948     -1.29882842
C      -7.71913283      0.15072338     -2.65585399
C      -6.41263819      0.31132960     -3.07554600
C      -5.38451377      0.31585349     -2.13198518
C      -5.62273668      0.16467011     -0.73980246
Na      0.00000000      0.00000000      0.00000000
Na      0.00000000      0.00000000      0.00000000
H       0.88653336      0.44500903     -2.63559761
H       2.57824213     -0.33847951     -1.06492233
H       3.63788408     -1.86736259      1.90655729
H       3.88873060      1.31288160      2.17656474
H       5.93169486      2.60331068      1.76464726
H       8.67128319     -0.28951437     -1.06435035
H       8.38543757     -2.51002431     -2.02004175
H       6.29310044     -3.79465407     -1.61503008
H       4.51192405     -2.82133960     -0.25095392
H      -3.13986729      0.97827755     -1.01036693
H      -4.05836240     -0.07835947      2.31493433
H      -6.36583172     -0.41929258      3.05773056
H      -9.03214330     -0.15182607     -1.01168629
H      -8.53669584      0.15036594     -3.36959491
H      -6.18547560      0.43088629     -4.13019817
H      -4.37397970      0.42873193     -2.51434511
