92
CC(C)(C)c1cc(CCC(=O)NNC(=O)CCc2cc(C(C)(C)C)c(O)c(C(C)(C)C)c2)cc(C(C)(C)C)c1O
C       9.10580692     -1.40495741      1.35522688
C       7.62264017     -1.54148261      1.76413977
C       7.59328966     -1.43739960      3.31212575
C       7.10964181     -2.96048317      1.42692592
C       6.75889261     -0.46909766      1.05337114
C       6.07667400      0.50802375      1.79652935
C       5.28149770      1.47899773      1.18160828
C       4.53779336      2.49930961      2.01418508
C       3.28855884      1.91467848      2.66895265
C       2.18032696      1.64334854      1.67096953
O       2.02182146      2.27095040      0.62618085
N       1.31825321      0.64105280      2.07464466
N       0.14886540      0.45860592      1.31840950
C      -1.03301153      0.30003690      2.01788376
O      -1.06677387      0.14939982      3.23724510
C      -2.25110376      0.31916844      1.12461525
C      -3.53104680      0.06109655      1.91322543
C      -4.73049399     -0.02272332      0.99914349
C      -5.40390909      1.13772139      0.60825741
C      -6.51115848      1.09604882     -0.25473213
C      -7.24676801      2.39829371     -0.66019787
C      -7.26514841      2.56458954     -2.19730935
C      -8.69104172      2.39026671     -0.11189521
C      -6.58322976      3.68722814     -0.10476059
C      -6.91578434     -0.18419177     -0.71299601
O      -8.04061004     -0.22228337     -1.49126783
C      -6.23067914     -1.38458390     -0.39236603
C      -6.59862442     -2.77965133     -0.96246222
C      -6.89228319     -2.73767520     -2.48108070
C      -5.45700672     -3.82351519     -0.80803488
C      -7.81621948     -3.34370390     -0.20175916
C      -5.14563275     -1.26081510      0.49565353
C       5.14522511      1.47056214     -0.21086239
C       5.78149542      0.51573721     -1.02546902
C       5.53074139      0.53021001     -2.55606456
C       5.29704934     -0.88510771     -3.13398020
C       4.26531944      1.33814712     -2.96062055
C       6.72460705      1.19883080     -3.26670398
C       6.61480936     -0.41679853     -0.35797289
O       7.34727470     -1.32227249     -1.07639582
H       9.47306745     -0.38882986      1.54107062
H       9.73698247     -2.09822172      1.92436008
H       9.27946346     -1.62771112      0.29925823
H       6.57622148     -1.55023286      3.70577235
H       8.20211768     -2.22470509      3.77258721
H       7.99582809     -0.47967027      3.66164788
H       7.23809153     -3.22281671      0.37275174
H       6.04282718     -3.05860954      1.66211738
H       7.64815569     -3.72237001      2.00420965
H       6.15035523      0.53827542      2.87963455
H       5.21576351      2.86874138      2.79408410
H       4.28557889      3.37378039      1.40158410
H       2.89191475      2.63201964      3.39754186
H       3.53004601      0.99375864      3.21241764
H       1.24504899      0.37453875      3.05786142
H       0.15391335      0.91231280      0.40348096
H      -2.29884784      1.29425812      0.62555146
H      -2.11874533     -0.44696042      0.35132677
H      -3.68838656      0.85406122      2.65556465
H      -3.44755210     -0.86900486      2.49073382
H      -5.03982995      2.08168380      1.00373426
H      -6.25057766      2.52104597     -2.61041482
H      -7.69855832      3.53018701     -2.48354890
H      -7.85944211      1.80097294     -2.70536967
H      -8.69832911      2.24605871      0.97438548
H      -9.19945123      3.33854556     -0.32409612
H      -9.30804872      1.59995696     -0.54822453
H      -5.54968561      3.79132728     -0.45417879
H      -6.58048933      3.70375722      0.99154066
H      -7.12286368      4.58469905     -0.43095601
H      -8.57946291     -0.96909146     -1.19161397
H      -7.81694621     -2.21300640     -2.73413846
H      -7.00789374     -3.74943421     -2.89104966
H      -6.07078577     -2.25346058     -3.02426747
H      -4.52371709     -3.46553472     -1.25745166
H      -5.26245132     -4.06977522      0.24101967
H      -5.71670019     -4.76898012     -1.29836384
H      -8.71264047     -2.72663352     -0.31860421
H      -7.61034157     -3.41465149      0.87447674
H      -8.07191865     -4.34880402     -0.55793507
H      -4.58470712     -2.13410186      0.81755034
H       4.50193802      2.23234272     -0.64509652
H       4.99226622     -0.83384866     -4.18644502
H       6.18762263     -1.51717360     -3.11904535
H       4.50474114     -1.40755397     -2.58547756
H       3.37599946      0.97762793     -2.43191867
H       4.37777126      2.40939236     -2.76281746
H       4.06430261      1.25021844     -4.03449859
H       6.91542788      2.20017407     -2.86205163
H       6.53321020      1.30606712     -4.34013027
H       7.65191045      0.62842551     -3.16453473
H       7.70774858     -0.85860896     -1.84639656
