123
CO[C@H]1/C=C/O[C@@]2(C)Oc3c(C)c(O)c4c(c3C2=O)C2=NC3(CCN(CC(C)C)CC3)NC2=C(NC(=O)/C(C)=C\C=C\[C@H](C)[C@H](O)[C@@H](C)[C@@H](O)[C@@H](C)[C@H](OC(C)=O)[C@@H]1C)C4=O
C      -1.85255373     -4.54550471      2.04584775
O      -3.18706135     -4.41568955      1.55410242
C      -3.27191736     -3.50187619      0.45199826
C      -3.18923221     -4.32923228     -0.80470893
C      -2.13296666     -4.38832262     -1.62828612
O      -0.96507018     -3.73754602     -1.36788544
C      -0.16213006     -3.38492236     -2.49790522
C       0.45500079     -4.58522369     -3.20687727
O      -0.86335189     -2.56895888     -3.46303392
C      -0.36279351     -1.29406849     -3.33125273
C      -0.84143785     -0.22701892     -4.08615583
C      -1.97117099     -0.42777812     -5.05526281
C      -0.18963569      1.00496173     -3.91834073
O      -0.59961787      2.09871628     -4.63599067
C       0.85406689      1.15984085     -2.97906373
C       1.24246095      0.09238010     -2.16253553
C       0.66564099     -1.14474784     -2.40936975
C       0.93854677     -2.49057226     -1.94806579
O       1.92241170     -2.85910421     -1.32934614
C       2.18478767      0.37988615     -1.08289474
N       2.65490039     -0.47802015     -0.22231610
C       3.49991893      0.32619657      0.70918031
C       4.96805039     -0.10586006      0.55231121
C       5.33193603     -1.16905360      1.58493262
N       5.18805322     -0.70209352      2.97407977
C       6.44207899     -0.18812302      3.55479248
C       7.48368983     -1.28033240      3.89229400
C       6.95194076     -2.27088368      4.93175790
C       8.77006427     -0.62018510      4.40795116
C       4.10464894      0.28306465      3.14359168
C       2.97460025      0.11202820      2.13255111
N       3.34499630      1.74536226      0.32492908
C       2.62091585      1.77985810     -0.84883049
C       2.35131075      2.78075664     -1.69472948
N       2.82020413      4.05321492     -1.43591680
C       2.52876632      5.27549784     -1.98296574
O       3.22557311      6.25076728     -1.70590809
C       1.31686806      5.44423284     -2.82017639
C       1.56710141      5.87799094     -4.23197288
C       0.08476155      5.26940435     -2.29912868
C      -0.20790523      5.10655714     -0.89038053
C      -1.27917973      4.49442704     -0.36555266
C      -2.32913759      3.67089860     -1.09812711
C      -3.51576910      4.56987809     -1.44246840
C      -2.71650123      2.44471907     -0.21137891
O      -1.56379612      1.59948675     -0.07597521
C      -3.89634003      1.58594562     -0.72909159
C      -3.51152521      0.74555476     -1.94868047
C      -4.59748310      0.72615068      0.37189884
O      -5.70584004      0.06432572     -0.25598549
C      -3.73801606     -0.30374544      1.17395216
C      -3.11825173      0.36948386      2.41542691
C      -4.57026726     -1.56625102      1.61168023
O      -4.00965265     -2.11179849      2.83128629
C      -4.83022901     -2.23377194      3.90848173
C      -4.05069937     -2.76499728      5.07184231
O      -6.00982038     -1.91615153      3.96128645
C      -4.60483303     -2.69597918      0.52890473
C      -5.81593225     -3.60846387      0.80322315
C       1.68523067      2.38603379     -2.97150659
O       1.95756598      2.93342654     -4.03268385
H      -1.46044609     -3.57101725      2.35911874
H      -1.20627615     -5.00040000      1.29217488
H      -1.87259880     -5.20181491      2.92046177
H      -2.43934462     -2.78901865      0.48590038
H      -4.04696952     -4.95040363     -1.03515393
H      -2.13609985     -5.01570633     -2.50615063
H      -0.30075245     -5.16565379     -3.74687124
H       0.94802028     -5.26058971     -2.50115742
H       1.18603429     -4.26456670     -3.95556802
H      -2.63256098     -1.24229314     -4.74074313
H      -2.59526546      0.46767371     -5.12304467
H      -1.57664874     -0.65986307     -6.04970974
H      -0.89798314      1.81266291     -5.51817923
H       5.64927910      0.74709444      0.67896653
H       5.15374661     -0.49237594     -0.45753386
H       4.67720684     -2.03833580      1.44902212
H       6.34315738     -1.53838189      1.38062051
H       6.88715243      0.56072998      2.88653215
H       6.21085953      0.33600675      4.49336545
H       7.74782694     -1.84143225      2.99162122
H       6.09420418     -2.82886136      4.53971472
H       6.63655219     -1.75682416      5.84440765
H       7.72470742     -2.99985467      5.20210820
H       9.19418926      0.03987015      3.64367823
H       9.52317981     -1.37453394      4.65375186
H       8.57903464     -0.02173320      5.30335270
H       4.48785958      1.30977441      3.05659140
H       3.70130022      0.17809080      4.15673324
H       2.16400867      0.81528453      2.35904042
H       2.54787272     -0.89393405      2.24215467
H       4.21029760      2.27438953      0.28748270
H       3.48975207      4.13894322     -0.68025881
H       2.32791260      5.26004018     -4.71725759
H       1.92528785      6.91584330     -4.24459388
H       0.65902656      5.82623841     -4.83933750
H      -0.77528519      5.35094940     -2.95948711
H       0.48347219      5.59516229     -0.20158089
H      -1.39171585      4.55701887      0.71540154
H      -1.88396606      3.29239490     -2.03037956
H      -3.18853944      5.51303544     -1.89704335
H      -4.17789383      4.08665925     -2.16949347
H      -4.10792627      4.81630403     -0.55189151
H      -2.99044538      2.82420782      0.78285716
H      -0.86971442      2.12216346      0.36289603
H      -4.68640301      2.26583252     -1.07640508
H      -4.39056022      0.28219228     -2.40701741
H      -3.05140513      1.37305361     -2.71790836
H      -2.81083428     -0.05308959     -1.69386546
H      -5.04770100      1.41668887      1.09863921
H      -6.33401326      0.74409663     -0.55637226
H      -2.90836200     -0.63779097      0.54357667
H      -2.55028690      1.26634438      2.17802435
H      -2.41631370     -0.30364921      2.91861435
H      -3.89691982      0.65366379      3.13295303
H      -5.59622431     -1.22629038      1.80318977
H      -3.47013177     -3.64029868      4.76730012
H      -4.73708022     -3.07161970      5.86641567
H      -3.39003347     -1.98101506      5.45507452
H      -4.77514224     -2.22150900     -0.44438066
H      -6.74068804     -3.01885134      0.86303973
H      -5.95790698     -4.33944583      0.00480478
H      -5.71747574     -4.15602658      1.74803637
