101
CCCCCCCCCCCCCCCCCCNC(=O)CCc1cc(C(C)(C)C)c(O)c(C(C)(C)C)c1
C       9.40303197     -2.79452836      5.06059779
C       9.03330771     -2.82915015      3.58590461
C       9.43252158     -1.53456592      2.87973848
C       9.07997634     -1.57875080      1.39189134
C       9.46301049     -0.27295669      0.69166444
C       9.11285899     -0.31699215     -0.79727076
C       9.55872562      0.93196834     -1.56498242
C       8.97723551      2.26080097     -1.06979073
C       7.44849779      2.33463678     -1.01914834
C       6.78997991      2.23490349     -2.39677057
C       5.26642689      2.34327378     -2.28750586
C       4.60555215      2.34893773     -3.66757530
C       3.08210308      2.50607033     -3.60652173
C       2.32222588      1.36033408     -2.92655568
C       2.42098849      0.03889255     -3.68921209
C       1.73846304     -1.14230804     -2.99099466
C       0.22714094     -0.98828133     -2.79746470
C      -0.14535173     -0.57267725     -1.37633357
N      -1.58229225     -0.49248003     -1.20886087
C      -2.12337066     -0.03520719     -0.02356662
O      -1.45308743      0.43816065      0.88624935
C      -3.63020501     -0.17356352      0.02417809
C      -4.19407663      0.23032228      1.38367145
C      -5.69435926      0.05636186      1.42583633
C      -6.24996179     -1.19542295      1.70869402
C      -7.63908673     -1.40207721      1.73224410
C      -8.22530396     -2.80060444      2.04786896
C      -7.14559763     -3.89334919      2.26838637
C      -9.09762527     -3.29966700      0.87354764
C      -9.06094439     -2.75905015      3.34628986
C      -8.45602809     -0.27458351      1.46147352
O      -9.80822883     -0.46095571      1.55855591
C      -7.94175027      1.00262312      1.12107807
C      -8.82095325      2.22128030      0.73927153
C      -8.03691613      3.32193727     -0.02837741
C      -9.99497529      1.83844335     -0.19416026
C      -9.36780502      2.87936657      2.02275431
C      -6.53995044      1.13258316      1.13536749
H      10.48396671     -2.67484750      5.18983704
H       8.90112523     -1.96584993      5.57020582
H       9.10341254     -3.72715641      5.54903916
H       9.52916738     -3.68291384      3.10986677
H       7.95255724     -2.98743559      3.48913173
H      10.51018257     -1.36878711      2.99631076
H       8.92312556     -0.68770918      3.35464962
H       9.60162179     -2.41810381      0.91690503
H       8.00438184     -1.75762737      1.27339147
H      10.53703493     -0.09328039      0.81265104
H       8.93833649      0.55628421      1.17703476
H       9.60167473     -1.18685046     -1.25330480
H       8.03559844     -0.46990653     -0.92367012
H       9.31000569      0.79789807     -2.62429631
H      10.65308531      1.00040114     -1.51986531
H       9.35130233      3.06418365     -1.71712003
H       9.37003528      2.47593515     -0.06875546
H       7.17085071      3.29439029     -0.56582149
H       7.05157275      1.55792617     -0.35600982
H       7.04647681      1.28147052     -2.87197978
H       7.17278265      3.03427541     -3.04242388
H       4.89580039      1.50195996     -1.69208607
H       4.99831638      3.26285842     -1.75352799
H       5.00888953      3.18834634     -4.24819280
H       4.87508319      1.44148762     -4.21767929
H       2.70276322      2.62540162     -4.62872593
H       2.84515173      3.43946515     -3.08142517
H       2.67114049      1.22834891     -1.89702307
H       1.26934285      1.65915966     -2.86515426
H       3.47290139     -0.23173624     -3.83142130
H       1.99187857      0.16319045     -4.69102607
H       2.23613217     -1.34804949     -2.03574964
H       1.90926445     -2.02628467     -3.61931049
H      -0.24599726     -1.95823183     -3.00122030
H      -0.19499911     -0.28792594     -3.52786027
H       0.28591411      0.39816322     -1.11309645
H       0.22649565     -1.30677591     -0.65190108
H      -2.16720640     -1.06918304     -1.80118608
H      -3.88807221     -1.21666808     -0.19823096
H      -4.05708640      0.45449346     -0.76744864
H      -3.93517977      1.27238412      1.61115628
H      -3.73687189     -0.36788893      2.18297656
H      -5.56016760     -2.00867397      1.91598477
H      -6.51093479     -4.02042825      1.38373314
H      -7.60445191     -4.86841476      2.47374840
H      -6.50197962     -3.66133342      3.12470075
H      -9.44540719     -4.32480917      1.04889121
H      -9.99359507     -2.69237615      0.71762624
H      -8.53067757     -3.29668802     -0.06529336
H      -9.95448106     -2.13500404      3.26004996
H      -9.40849166     -3.76151422      3.62318154
H      -8.46800925     -2.37045247      4.18288163
H     -10.15724147      0.26484946      2.09795317
H      -7.27395813      3.79885414      0.59691876
H      -8.70312699      4.12827893     -0.35888561
H      -7.54689589      2.91504529     -0.92070838
H     -10.79026047      1.29032326      0.31774324
H      -9.64814823      1.22986490     -1.03689551
H     -10.47929829      2.73025348     -0.60881743
H      -8.55155086      3.19719297      2.68312259
H      -9.96738248      3.76655603      1.78621101
H     -10.00512768      2.20603880      2.60282148
H      -6.06494817      2.08390092      0.91116630
