123
CC(C)CCCCCCCCCCCCCCCOC(=O)CC(O)C(=O)OCCCCCCCCCCCCCCCC(C)C
C     -15.43711995      1.77435772     -2.39854812
C     -15.05694328      1.20463241     -1.02853701
C     -16.32042439      0.94058066     -0.20972822
C     -14.19751079     -0.06048586     -1.21120263
C     -13.73330161     -0.75528209      0.07597616
C     -12.88080203      0.14016089      0.97847524
C     -12.40399242     -0.56376513      2.25385542
C     -11.50106793     -1.78483164      2.04821977
C     -10.24795184     -1.55500641      1.19577294
C      -9.29607865     -0.51033578      1.78406151
C      -8.05681682     -0.26329077      0.91634887
C      -7.07345989     -1.43629765      0.90722961
C      -5.87002191     -1.20661966     -0.01369273
C      -4.94875368     -0.07572677      0.45166270
C      -3.73723547      0.06351474     -0.47438951
C      -2.85257336      1.26494863     -0.13167316
C      -2.08421532      1.09809107      1.18314084
C      -1.24290726      2.33057180      1.51557242
O      -0.30599561      2.61446729      0.46732142
C       0.90008763      1.98664043      0.55175820
O       1.23842876      1.22783160      1.44470044
C       1.75058723      2.40426231     -0.61846575
C       2.98324913      1.52411128     -0.75852980
O       4.01196264      2.30446105     -1.39420162
C       2.65689103      0.30903681     -1.62649927
O       2.95419366      0.24796636     -2.81493324
O       1.99533446     -0.64093607     -0.92200023
C       1.51200202     -1.77635780     -1.65333113
C       1.98732724     -3.07674693     -1.00609971
C       3.37044860     -3.54101903     -1.47977232
C       4.57448467     -2.77823727     -0.91910849
C       4.71827221     -2.91826598      0.60017242
C       6.10982960     -2.55223377      1.13271245
C       6.29726801     -1.08374315      1.52751858
C       6.32656484     -0.07086793      0.38338553
C       7.41339190     -0.28573962     -0.67364828
C       8.85700927     -0.30969549     -0.15639640
C       9.26876452      0.98131424      0.55463216
C      10.73545732      0.99000040      0.99768118
C      11.72036418      1.07330231     -0.17166147
C      13.16150173      1.21984621      0.32654355
C      14.14135165      1.30793008     -0.84814109
C      15.62143064      1.48588932     -0.46244376
C      16.15669606      0.31102097      0.35862188
C      15.88037391      2.80728056      0.25970729
H     -16.00525114      2.70536124     -2.28760097
H     -16.05230354      1.06898089     -2.96782678
H     -14.54176132      1.99772394     -2.98876691
H     -14.46549491      1.97019892     -0.51273322
H     -16.94312765      1.84041086     -0.15309544
H     -16.07701259      0.65165218      0.81758688
H     -16.92294732      0.14216510     -0.65545264
H     -13.31030360      0.19761510     -1.80527300
H     -14.75989771     -0.79311174     -1.80498114
H     -14.59860069     -1.13100172      0.63528954
H     -13.15299735     -1.63718696     -0.22192302
H     -12.02241433      0.52833832      0.41826105
H     -13.46965369      1.01121346      1.29053680
H     -11.88131359      0.16945143      2.87950879
H     -13.28039013     -0.87960620      2.83371410
H     -12.08572798     -2.59437571      1.59540813
H     -11.19414677     -2.15310811      3.03559051
H     -10.53294768     -1.26719867      0.17704986
H      -9.72938895     -2.51652793      1.11194200
H      -8.98835806     -0.80892831      2.79264186
H      -9.82153407      0.44566102      1.88314008
H      -7.55289475      0.62767263      1.30838513
H      -8.36780267     -0.02683591     -0.10775815
H      -6.72473265     -1.63416487      1.92827241
H      -7.58067615     -2.34549505      0.56616275
H      -5.29360041     -2.13723771     -0.06388873
H      -6.22331682     -1.00377758     -1.03166251
H      -5.49687518      0.87317803      0.46331195
H      -4.62039119     -0.27847719      1.47622903
H      -4.09136834      0.18560507     -1.50653414
H      -3.13979579     -0.85536045     -0.45241430
H      -2.13650713      1.40251758     -0.95112769
H      -3.46442326      2.17401192     -0.09358572
H      -1.43327491      0.21943310      1.10044411
H      -2.77658339      0.91970343      2.01213841
H      -1.88963307      3.20977196      1.61219541
H      -0.73253615      2.20836574      2.47761156
H       2.04320411      3.44864374     -0.45723636
H       1.14271018      2.36201029     -1.53171741
H       3.39264886      1.19011777      0.19864401
H       3.99612484      2.06689958     -2.34409748
H       1.76657766     -1.75079159     -2.71851795
H       0.41837874     -1.73254925     -1.58515005
H       1.95844395     -2.99834956      0.08522942
H       1.27639727     -3.86274906     -1.28979814
H       3.40842233     -3.49922519     -2.57569358
H       3.48217572     -4.60174944     -1.21636964
H       4.51677474     -1.72804414     -1.20834386
H       5.47237150     -3.18290193     -1.40286106
H       3.94913815     -2.33076913      1.11411625
H       4.53578383     -3.96863555      0.86402377
H       6.26634936     -3.14011696      2.04710980
H       6.89584547     -2.87534474      0.43929926
H       7.22848182     -0.99845031      2.10036863
H       5.49818808     -0.79903999      2.22354995
H       5.35487195     -0.06286520     -0.11567227
H       6.43436438      0.93261564      0.81428468
H       7.32464848      0.51476042     -1.41939887
H       7.22096433     -1.22052233     -1.21161052
H       9.50981960     -0.48049242     -1.01996472
H       9.00160744     -1.16485353      0.51317270
H       9.07545457      1.84442235     -0.09458908
H       8.65209621      1.11359345      1.45095486
H      10.88781290      1.85753852      1.65230066
H      10.94678259      0.09851616      1.59984273
H      11.46370682      1.92975461     -0.80674933
H      11.64473771      0.17460847     -0.79335725
H      13.40927112      0.36070571      0.96003981
H      13.23686256      2.11883856      0.94803988
H      14.04526863      0.39976019     -1.45771442
H      13.84702364      2.14251210     -1.49706340
H      16.19064843      1.51255384     -1.40132294
H      17.24089212      0.39680153      0.48860611
H      15.70753478      0.27435870      1.35587557
H      15.95684464     -0.64053311     -0.14489177
H      16.95638320      2.96734300      0.39311860
H      15.48780367      3.65125477     -0.31768346
H      15.42046786      2.82700190      1.25288282
