49
CC1(C)[C@@H](C(Br)C(Br)(Br)Br)[C@H]1C(=O)O[C@H](C#N)c1cccc(Oc2ccccc2)c1
C      -4.31544782      0.95482368      2.60357574
C      -3.86730233      0.78814398      1.16755147
C      -3.50233294      2.10498080      0.52138594
C      -4.47581774     -0.37966019      0.38041187
C      -4.86588124     -0.34168681     -1.08798722
Br     -4.33794959     -2.12788743     -1.81917843
C      -6.35883983     -0.04502713     -1.38824578
Br     -6.85287884      1.72948787     -0.63766304
Br     -6.64641875      0.07512393     -3.35290263
Br     -7.58797884     -1.39018997     -0.62507767
C      -3.02725498     -0.44358498      0.85543971
C      -1.85058784     -0.39957126     -0.05564055
O      -1.82846918      0.22101656     -1.10726881
O      -0.82315966     -1.12717832      0.44513868
C       0.34490319     -1.17404373     -0.39984967
C       0.21122713     -2.23060070     -1.42956494
N       0.09666690     -3.07510671     -2.22070557
C       1.53075617     -1.42466607      0.51988796
C       1.60414345     -2.58212843      1.31707216
C       2.69089709     -2.79421820      2.16755738
C       3.72094040     -1.85690143      2.23124806
C       3.66977175     -0.71220531      1.43738858
O       4.70610509      0.18478502      1.57735202
C       5.19010294      0.77291896      0.43121712
C       5.33248764      2.16050141      0.43654871
C       5.83891514      2.80965340     -0.68927587
C       6.21781666      2.06867377     -1.80988728
C       6.10123263      0.67766458     -1.80280706
C       5.59390665      0.02551713     -0.67892246
C       2.57217954     -0.48402612      0.60033012
H      -5.21906006      1.57155064      2.65124430
H      -3.53026953      1.44184116      3.19140996
H      -4.54188841     -0.00664064      3.07747783
H      -4.24951684      2.86893174      0.76162922
H      -3.43079571      2.05808419     -0.56635357
H      -2.53908997      2.45571858      0.90903664
H      -5.15109912     -1.03252129      0.93161706
H      -4.23532976      0.35254654     -1.65073451
H      -2.86154992     -1.12498234      1.69037627
H       0.49266211     -0.20449305     -0.89511649
H       0.80914314     -3.32741372      1.28481275
H       2.73337952     -3.69052779      2.78225244
H       4.56469074     -2.02033679      2.89665547
H       5.04680308      2.73373756      1.31378944
H       5.94768090      3.89094960     -0.68971891
H       6.61691205      2.57454441     -2.68519886
H       6.41153984      0.10126594     -2.67049317
H       5.52461446     -1.05887998     -0.67068057
H       2.52944072      0.43201694      0.01453017
