32
Cc1nc(C(F)(F)F)c(C(=O)Nc2c(Br)cc(OC(F)(F)F)cc2Br)s1
C      -6.09173669      1.85628808     -0.57053176
C      -4.76397690      1.20716129     -0.39297422
N      -4.56092313     -0.09035705     -0.41435804
C      -3.20685667     -0.38243180     -0.19897001
C      -2.75255988     -1.81104786     -0.13191886
F      -2.07412783     -2.07535530      1.01407963
F      -1.90478938     -2.09492721     -1.16055882
F      -3.76742294     -2.70801272     -0.20585292
C      -2.39984050      0.74173160     -0.06124936
C      -0.96681203      0.87493288      0.15413226
O      -0.46200202      1.86352562      0.68001894
N      -0.20669940     -0.16466967     -0.36621292
C       1.20584431     -0.23887921     -0.23273339
C       1.88495895     -0.10898688      0.99156756
Br      0.99544045     -0.07117522      2.67891284
C       3.28923690     -0.16050266      1.04240090
C       4.03320496     -0.37585465     -0.11654542
O       5.39343169     -0.44924485     -0.20980151
C       6.15670324     -0.24694852      0.96912146
F       5.87918621     -1.19353952      1.89021550
F       7.46772487     -0.33318168      0.65650975
F       5.92586931      0.97512989      1.49213718
C       3.36249761     -0.56695657     -1.32558173
C       1.96675028     -0.51196706     -1.38146405
Br      1.14255278     -0.77522756     -3.07745095
S      -3.36766224      2.16195491     -0.13619493
H      -6.08819013      2.51779020     -1.44263716
H      -6.36069227      2.44101571      0.31486189
H      -6.86884044      1.10062837     -0.72406075
H      -0.56972858     -0.57096903     -1.22530708
H       3.77069414     -0.05416646      2.01138673
H       3.93876531     -0.75575710     -2.22958908
