90
Cc1ccc(Cl)cc1N/N=C1\C(=O)C(C(=O)Nc2cc(C)c(NC(=O)C3=Cc4ccccc4/C(=N\Nc4cc(Cl)ccc4C)C3=O)cc2C)=Cc2ccccc21
C      10.18614875      1.01115849      1.44923198
C       9.41458220      0.03748548      2.29969596
C      10.01767481     -0.38725451      3.50435017
C       9.36639393     -1.26522661      4.36777362
C       8.10171094     -1.72598220      4.03958129
Cl      7.27255904     -2.78707846      5.11061891
C       7.49303593     -1.32844138      2.85001403
C       8.14104898     -0.46140380      1.94536178
N       7.39612658     -0.07981010      0.80347541
N       7.97501162      0.57714777     -0.23018188
C       7.23453730      0.83841874     -1.27105424
C       5.77329791      0.42328133     -1.39127662
O       5.35527327     -0.54792222     -0.76572254
C       4.89669586      1.22051649     -2.28142979
C       3.39513093      1.14750574     -2.24910089
O       2.73573427      1.90352858     -2.95872377
N       2.89147872      0.19716999     -1.38511949
C       1.54107761     -0.09327419     -1.07841318
C       0.46818814      0.60722589     -1.63913356
C      -0.87241317      0.30046686     -1.32147491
C      -1.96059633      1.11031915     -1.98121034
C      -1.14973858     -0.73694371     -0.41242324
N      -2.50055681     -1.04300187     -0.11522422
C      -2.99000717     -1.98543657      0.76399226
O      -2.32047896     -2.72510550      1.47947571
C      -4.48641630     -2.07598427      0.81386512
C      -5.03984990     -3.07355235      1.52846821
C      -6.48460173     -3.32253927      1.55477448
C      -6.96907057     -4.53713059      2.05702443
C      -8.33604812     -4.81731954      2.03030193
C      -9.22681317     -3.89331035      1.48963876
C      -8.75748050     -2.67402641      1.00030436
C      -7.39198546     -2.37520486      1.05968618
C      -6.82892421     -1.08955098      0.58229745
N      -7.38412633      0.08968760      0.57273463
N      -8.60354800      0.23940980      1.15838397
C      -9.30338094      1.44981040      0.88913916
C     -10.06271916      2.01277113      1.93301670
C     -10.79663679      3.18254844      1.73489132
Cl    -11.69325365      3.86013472      3.03890559
C     -10.80845397      3.80785318      0.49488852
C     -10.09226661      3.24756006     -0.56019201
C      -9.35417393      2.05915170     -0.38621554
C      -8.64262859      1.49043275     -1.58620285
C      -5.38935467     -1.15330065      0.08980963
O      -5.00170133     -0.44030712     -0.82796025
C      -0.07463661     -1.43251672      0.15266581
C       1.26485977     -1.12762554     -0.16518475
C       2.35261107     -1.94398598      0.48753501
C       5.47089804      2.03563806     -3.18404235
C       6.92194734      2.16805150     -3.33551422
C       7.44825953      2.90408706     -4.40532872
C       8.83024862      3.05904693     -4.54425076
C       9.69809307      2.48753018     -3.61459277
C       9.18544075      1.75736865     -2.54253123
C       7.80075769      1.59610605     -2.40793352
H      11.10457077      1.34094889      1.94770442
H      10.48425433      0.53822418      0.50868153
H       9.59908259      1.91456318      1.25622500
H      11.00441585     -0.02164955      3.78092295
H       9.84633047     -1.56956332      5.29541133
H       6.49354010     -1.69095213      2.62897475
H       6.62349220     -0.71874041      0.58967135
H       3.57915099     -0.38249554     -0.90806913
H       0.64550227      1.41547371     -2.34123533
H      -1.54706550      1.90322568     -2.61423004
H      -2.57777266      0.46722538     -2.62020244
H      -2.58723310      1.59410627     -1.22279062
H      -3.19711040     -0.50421325     -0.62821063
H      -4.40959701     -3.77807695      2.06880228
H      -6.28723427     -5.28423465      2.45821875
H      -8.70367944     -5.76640089      2.41631110
H     -10.28872815     -4.12291391      1.44353146
H      -9.46582770     -1.97957285      0.55485516
H      -8.60529365      0.04295286      2.16025521
H     -10.07502462      1.54499083      2.91426972
H     -11.37679696      4.72193527      0.33912220
H     -10.11986371      3.73616180     -1.53230884
H      -7.57166652      1.70036235     -1.52755424
H      -9.01972736      1.93619341     -2.51401864
H      -8.81475207      0.41096986     -1.66829581
H      -0.24911360     -2.24250375      0.85425352
H       2.91670972     -2.49680609     -0.27215912
H       1.94348159     -2.67497641      1.19445008
H       3.02878055     -1.29348035      1.05435473
H       4.85551963      2.62876320     -3.85923217
H       6.79194685      3.36808555     -5.13977192
H       9.23044771      3.63444990     -5.37610963
H      10.77334576      2.61407981     -3.72214790
H       9.86895421      1.31569094     -1.82122641
