85
CC(=O)OC[C@H]1O[C@H](O[C@]2(COC(C)=O)O[C@H](COC(C)=O)[C@@H](OC(C)=O)[C@@H]2OC(C)=O)[C@H](OC(C)=O)[C@@H](OC(C)=O)[C@@H]1OC(C)=O
C       1.14212549      2.36711285      4.92884602
C       2.14438635      1.74090841      4.00739084
O       3.06024636      1.01588792      4.37140863
O       1.91813517      2.12927934      2.72399425
C       2.84677915      1.62530156      1.74643443
C       2.54306990      0.15943393      1.37529742
O       1.17084593      0.02891670      0.94669418
C       1.01076455      0.19497659     -0.46185919
O      -0.36262460      0.28536373     -0.82853799
C      -1.02608601      1.52682288     -0.56856307
C      -0.48647985      2.69565153     -1.42437278
O      -0.67690669      2.45093820     -2.83029131
C       0.37652528      1.92330240     -3.50741449
C      -0.03367683      1.57430364     -4.90479438
O       1.49503694      1.74016820     -3.04753176
O      -0.96900481      1.85219829      0.82887226
C      -2.07910745      1.19412140      1.47930088
C      -1.58190888      0.17472582      2.50774314
O      -2.67648586     -0.43111263      3.21604354
C      -3.14087107      0.26764729      4.28453459
C      -4.28731674     -0.46116414      4.91372330
O      -2.70936104      1.34524958      4.66869132
C      -2.93730407      0.52645330      0.39539022
O      -4.33062064      0.69596545      0.71643887
C      -5.18959006     -0.19871216      0.15953635
C      -6.59810958      0.13705214      0.54512240
O      -4.87638455     -1.14784688     -0.54325036
C      -2.53176055      1.31724328     -0.83986201
O      -2.75501726      0.58413973     -2.05437586
C      -3.92997658      0.80904361     -2.69328352
C      -4.02371056     -0.03924983     -3.92586512
O      -4.78472652      1.61319440     -2.34279678
C       1.62508143     -1.03214819     -1.17317172
O       0.67378517     -2.13061810     -1.14627438
C       0.14354205     -2.50096994     -2.34464666
C      -0.81450007     -3.63814424     -2.15717382
O       0.37623651     -1.97831478     -3.42842968
C       2.90133349     -1.52236858     -0.46137389
O       3.85966648     -1.96989521     -1.45851442
C       3.69619854     -3.23973915     -1.92241938
C       4.70230599     -3.52573603     -2.99528490
O       2.85507025     -4.03902440     -1.53549271
C       3.54857111     -0.37878561      0.33119796
O       4.72021038     -0.88452042      1.00954513
C       5.81890651     -0.08365822      1.00425614
C       6.94593153     -0.73217705      1.74403927
O       5.87496876      1.02861984      0.49880642
H       1.53764458      3.31202131      5.30878220
H       0.19838069      2.55134778      4.40613261
H       0.93383715      1.68150485      5.75593050
H       3.87113842      1.75460896      2.11131613
H       2.73308290      2.26969427      0.86895920
H       2.61360316     -0.44787387      2.28532358
H       1.54550604      1.09653938     -0.76540011
H       0.55864594      2.93126951     -1.19341960
H      -1.03789891      3.61130571     -1.18002897
H       0.84331938      1.23429243     -5.46275148
H      -0.77110831      0.76617681     -4.87642052
H      -0.44524208      2.45598896     -5.40343920
H      -2.65556301      1.97361964      1.99150177
H      -0.86198637      0.62607140      3.20032940
H      -1.03985933     -0.63714375      2.01101333
H      -5.12347379     -0.50874296      4.21236873
H      -4.61036829      0.07654387      5.81053628
H      -3.97305714     -1.46539267      5.20624874
H      -2.69418374     -0.53761745      0.28812047
H      -7.28672613     -0.49655312     -0.02142297
H      -6.81489841      1.17976240      0.29632968
H      -6.74164671     -0.04331642      1.61342310
H      -3.05291667      2.28553574     -0.85275343
H      -3.70818876      0.54527466     -4.79266305
H      -5.05649118     -0.37915760     -4.05019281
H      -3.39288460     -0.92710824     -3.83056468
H       1.85581858     -0.75287518     -2.20695123
H      -1.82789593     -3.25100432     -2.03205839
H      -0.53068016     -4.23336643     -1.28323603
H      -0.76316845     -4.29304007     -3.03244964
H       2.69575677     -2.35806041      0.22361870
H       4.56645803     -2.82773508     -3.82457552
H       5.71043195     -3.44920295     -2.58437865
H       4.55368427     -4.54336547     -3.36996246
H       3.83048270      0.40242563     -0.38551135
H       7.89596395     -0.34824778      1.35721207
H       6.93257954     -1.81450689      1.58202731
H       6.86371088     -0.50950909      2.81127894
