110
CCC(C)C1NC(=O)C(Cc2ccc3ccccc3c2)NC(=O)C2CCCN2C(=O)C(Cc2c[nH]cn2)NC(=O)C2CCCCN2C(=O)C2CCCCN2C1=O
C       3.11334145     -4.85833524      1.63185612
C       2.31789328     -3.59148680      1.93369992
C       1.45878224     -3.12112255      0.73429615
C       2.31769200     -2.78798128     -0.49271257
C       0.45275435     -1.98087423      1.10966872
N       0.88040603     -1.14522464      2.24255115
C       1.71445343     -0.08357177      2.36847994
O       1.77260784      0.49824053      3.45284409
C       2.56630559      0.40016695      1.18344288
C       3.87009179      1.04182738      1.70964062
C       4.90876266      1.27549486      0.63195881
C       5.69267138      0.22021990      0.14911427
C       6.62671644      0.44205076     -0.86906436
C       6.81177928      1.72294820     -1.40588529
C       7.75771205      1.96836401     -2.41060789
C       7.92739138      3.25075561     -2.93766233
C       7.15078208      4.30430360     -2.47042666
C       6.20450484      4.07805141     -1.47229316
C       6.02963583      2.79530870     -0.92538147
C       5.08312327      2.55776581      0.08509789
N       1.90654406      1.23173510      0.16451986
C       1.40694324      2.49518794      0.35393555
O       1.64350817      3.33758021     -0.51864020
C       0.46165627      2.77534378      1.53324951
C       1.13386370      3.65258087      2.59153095
C       0.63378247      5.05741992      2.29173410
C      -0.79188741      4.81437698      1.82957786
N      -0.71042089      3.56523027      1.09432136
C      -1.84542665      3.03383241      0.50587077
O      -2.95014266      3.56189801      0.65244513
C      -1.64357150      1.81026078     -0.41989073
C      -1.52743248      2.28331464     -1.88056696
C      -2.83410571      2.72329429     -2.45352167
C      -3.28432547      3.99540741     -2.73827323
N      -4.57196319      3.83193922     -3.17132224
C      -4.84478059      2.49142576     -3.15676615
N      -3.81748346      1.79231987     -2.72356008
N      -2.67527652      0.80996783     -0.24304631
C      -2.72404574      0.02679377      0.87783171
O      -1.92444531      0.14957978      1.79820419
C      -3.88967248     -0.96439125      0.92917590
C      -5.07853890     -0.25555146      1.60223124
C      -6.34715215     -1.09663708      1.49209226
C      -6.63949801     -1.54454659      0.05984528
C      -5.54669521     -1.13926941     -0.92375624
N      -4.22046970     -1.48568081     -0.41618250
C      -3.42485952     -2.35088067     -1.16930065
O      -3.84009702     -2.78118718     -2.25235497
C      -1.94498557     -2.68490955     -0.73276936
C      -1.35501443     -3.77683241     -1.65890743
C      -1.96752405     -5.16182879     -1.37960454
C      -1.96231138     -5.50818606      0.11164335
C      -2.53551474     -4.36992692      0.95629888
N      -1.79599643     -3.14376943      0.65605503
C      -0.85664714     -2.70391976      1.58502389
O      -0.97713287     -2.99329009      2.78248774
H       3.89449039     -4.66727076      0.88254240
H       3.59743728     -5.22255418      2.54879211
H       2.45305491     -5.65640746      1.26375294
H       3.01885126     -2.80163295      2.24269996
H       1.66049342     -3.80342269      2.78723133
H       0.86180572     -3.99456464      0.42873173
H       1.77235989     -2.15773438     -1.20494019
H       3.25361990     -2.29775969     -0.21789798
H       2.59387043     -3.70740841     -1.01890539
H       0.25126832     -1.31584066      0.26828013
H       0.34580704     -1.31571980      3.09567871
H       2.85499258     -0.49110712      0.63490017
H       4.32260982      0.39304265      2.46844043
H       3.66657286      1.98144544      2.23288432
H       5.58945108     -0.78390596      0.55638178
H       7.22139567     -0.39314661     -1.23226725
H       8.37419598      1.16157457     -2.79379331
H       8.66448983      3.42768425     -3.71510571
H       7.27915733      5.30260690     -2.88008501
H       5.60750602      4.91378754     -1.11546190
H       4.46205624      3.38063099      0.44657532
H       2.43885218      1.24892421     -0.70310317
H       0.08852915      1.84037075      1.95570151
H       0.79310615      3.35435053      3.59102724
H       2.22839924      3.60890870      2.57734313
H       1.23335499      5.49240381      1.48158873
H       0.68512575      5.72635285      3.15476500
H      -1.18120873      5.61340508      1.18983990
H      -1.47569364      4.67812583      2.67584917
H      -0.71653538      1.30314741     -0.17140727
H      -1.14873920      1.46083878     -2.50454328
H      -0.80251099      3.10121888     -1.96553280
H      -2.82857021      4.96960542     -2.63153775
H      -5.21520307      4.56450821     -3.44687558
H      -5.80216767      2.08879061     -3.46156959
H      -3.45704712      0.82237082     -0.89732485
H      -3.60082058     -1.80631605      1.55579413
H      -4.84548183     -0.04923834      2.65525629
H      -5.25562519      0.72538930      1.14400737
H      -6.23756545     -1.98440317      2.12047639
H      -7.19988386     -0.54251634      1.89860246
H      -6.75842306     -2.63441108      0.05032622
H      -7.59764504     -1.12668232     -0.27455524
H      -5.56616433     -0.05615491     -1.08859296
H      -5.75593677     -1.59612910     -1.89491263
H      -1.37803446     -1.76217310     -0.87387107
H      -1.50208118     -3.51352531     -2.71369565
H      -0.27182296     -3.84376699     -1.51212872
H      -2.99553845     -5.19781689     -1.75897072
H      -1.40969599     -5.92182213     -1.93298765
H      -2.53831848     -6.42135048      0.28191280
H      -0.93093978     -5.71932891      0.42478796
H      -3.59806598     -4.20953561      0.73632595
H      -2.45942200     -4.63142010      2.01487017
