83
NCC[C@H](O)C(=O)N[C@@H]1C[C@H](N)[C@@H](O[C@H]2O[C@H](CN)[C@@H](O)[C@H](O)[C@H]2O)[C@H](O)[C@H]1O[C@H]1O[C@H](CO)[C@@H](O)[C@H](N)[C@H]1O
N      -3.65649961      6.84087884     -2.26916920
C      -3.14205809      5.68389354     -2.99888119
C      -3.17684537      4.38797826     -2.17936978
C      -2.17130056      4.35859671     -1.03013881
O      -0.84530617      4.22987073     -1.55837209
C      -2.48741324      3.17035934     -0.11375913
O      -3.26032723      3.23857733      0.83752400
N      -1.82483731      2.01888594     -0.49479994
C      -1.78266679      0.84952961      0.37356440
C      -0.82222109      1.05782392      1.55181605
C       0.64861020      1.16445336      1.12781484
N       1.00691685      2.57891920      0.86213308
C       0.97878766      0.29167950     -0.10786934
O       2.30372283     -0.26627616      0.00011208
C       3.33990344      0.59060938     -0.48841479
O       3.80971250      1.47551507      0.53639161
C       4.38374461      0.77222735      1.66152660
C       4.83698258      1.80809076      2.71389985
N       3.74540862      2.70720150      3.11475055
C       5.57633329     -0.09542072      1.21688901
O       6.11616048     -0.84684909      2.30613446
C       5.14539058     -1.05299494      0.10541191
O       6.30219800     -1.74558989     -0.40013067
C       4.50082511     -0.26255476     -1.03130010
O       4.06679239     -1.16344537     -2.05921061
C       0.01183548     -0.89725879     -0.22620588
O       0.43930480     -1.69031811     -1.35457141
C      -1.45019752     -0.43995178     -0.42547342
O      -2.36242210     -1.45209182      0.06008824
C      -2.81627124     -2.37625599     -0.93187724
O      -1.86421746     -3.38791057     -1.22608763
C      -1.55191757     -4.22771865     -0.10145466
C      -0.46405778     -5.20523207     -0.56462641
O       0.65817286     -4.46400712     -1.05229409
C      -2.79805651     -4.96654720      0.39504501
O      -2.50806707     -5.75218453      1.55205098
C      -3.89818978     -3.94860233      0.74180174
N      -5.13666206     -4.66028344      1.16932131
C      -4.14742883     -3.00972078     -0.45505127
O      -5.12754153     -2.02856466     -0.07883838
H      -3.03241836      7.08069250     -1.50236311
H      -4.55751253      6.61130440     -1.84657697
H      -2.12612728      5.89914804     -3.34654362
H      -3.75757232      5.55174447     -3.89619794
H      -2.96319968      3.55650840     -2.86552064
H      -4.19482495      4.22592290     -1.79561366
H      -2.20498085      5.26990112     -0.42864577
H      -0.23313053      4.34732834     -0.79892479
H      -1.05171499      2.18816029     -1.13772148
H      -2.79184753      0.75000568      0.79704903
H      -0.92136733      0.19690388      2.22750624
H      -1.11824885      1.93024025      2.14741900
H       1.26448648      0.84205410      1.97808972
H       2.02254446      2.59077366      0.70031465
H       0.90317220      3.08626388      1.74706654
H       0.90519018      0.86159746     -1.04553706
H       2.96101513      1.20078504     -1.31897822
H       3.61205971      0.14291558      2.12430092
H       5.21769966      1.29878557      3.60420956
H       5.64583335      2.42730608      2.30840883
H       4.10293376      3.36959226      3.80000915
H       3.47692503      3.25592477      2.29742790
H       6.38296443      0.54575326      0.83945785
H       6.88726336     -1.32849811      1.94785198
H       4.46369079     -1.82111868      0.48609237
H       6.24384494     -2.66350347     -0.07621875
H       5.25242516      0.39183517     -1.48598333
H       4.85214330     -1.69612200     -2.28520890
H       0.08932728     -1.55265660      0.65186089
H       1.33478164     -1.99751554     -1.10125343
H      -1.64848467     -0.26802612     -1.49194957
H      -3.03376692     -1.82789645     -1.85664667
H      -1.12156551     -3.60819256      0.69577972
H      -0.82368285     -5.83094975     -1.39000531
H      -0.12512546     -5.85571148      0.24766192
H       0.27351569     -3.70122359     -1.53498089
H      -3.16375244     -5.64553862     -0.38935070
H      -3.37793427     -5.95674422      1.94842492
H      -3.58942381     -3.36198111      1.61901095
H      -5.81632116     -3.92643839      1.40264484
H      -5.55546163     -5.11348505      0.35107383
H      -4.57139255     -3.59888056     -1.27830943
H      -4.68825747     -1.15227635     -0.09758499
