50
Cc1ncsc1CCCl.Cc1ncsc1CCCl.O=S(=O)(O)CCS(=O)(=O)O
C       1.30660241      1.65457647      0.24373988
C       1.18667853      0.21065226     -0.09326795
N       2.33858476     -0.56079333     -0.04792376
C       2.05880720     -1.80236099     -0.36943370
S       0.42394315     -2.12975925     -0.74888737
C       0.03704452     -0.47956036     -0.45103468
C      -1.37221201      0.00871590     -0.61439551
C      -2.26480023     -0.30372866      0.58375682
Cl     -1.87314266      0.71359689      1.99340378
C      -1.31145952      1.21630846      1.14232488
C      -1.18647171      0.05142021      0.22565300
N      -2.24822613     -0.83910817      0.16475036
C      -1.97656403     -1.80217812     -0.68485568
S      -0.45733252     -1.70980743     -1.46418748
C      -0.11162721     -0.26676886     -0.59258523
C       1.18966777      0.45020979     -0.80157664
C       2.35243458     -0.16611254     -0.02825613
Cl      2.23745794      0.15425974      1.72091326
O      -2.22265319     -0.47327880     -1.91706064
S      -1.15684181     -0.68543167     -0.96758326
O       0.02914393     -1.44736815     -1.28643736
O      -1.85079033     -1.38439097      0.30854395
C      -0.73088761      0.86289342     -0.19453565
C       0.26443943      0.71323982      0.93544664
S       1.91740987      0.33432709      0.37462122
O       2.84819430      0.76781878      1.39088132
O       2.04975404      0.72785179     -1.00872550
O       1.83503464     -1.27563711      0.42806473
H       2.34099593      1.99391179      0.12747623
H       1.00714522      1.82878951      1.28118938
H       0.68038002      2.26762383     -0.41109331
H       2.81509292     -2.57565782     -0.39635195
H      -1.37876038      1.08610268     -0.81862144
H      -1.80786989     -0.46354505     -1.50476704
H      -3.30952768     -0.09862250      0.33096084
H      -2.18896180     -1.34994136      0.89524977
H      -0.79097225      1.01685468      2.08340780
H      -2.36309900      1.41632731      1.37185069
H      -0.89174370      2.12105303      0.69281002
H      -2.67078986     -2.60755820     -0.88509049
H       1.08417119      1.51043256     -0.54213162
H       1.43489892      0.43076113     -1.87165750
H       3.29604736      0.27379406     -0.36516433
H       2.41360817     -1.24988764     -0.16620491
H      -2.74735709     -1.68910986      0.04158052
H      -0.36500479      1.52500026     -0.98502747
H      -1.66851344      1.28694152      0.18115544
H       0.34863840      1.67270870      1.45850922
H      -0.02617655     -0.03835060      1.67493429
H       1.47561021     -1.61456985     -0.43436745
