58
Cc1cc(NC(C)C(=O)c2ccccc2)ccc1N/N=C1\C=C(S(=O)(=O)[O-])c2ccccc2C1=O.[Na+]
C      -0.16463504     -2.62111675     -0.22451761
C       0.30015150     -1.37282306      0.47728782
C       1.67476272     -1.22298398      0.75776120
C       2.17894106     -0.09418884      1.41379196
N       3.53007318      0.05547747      1.74747006
C       4.55866971     -0.42230640      0.80118714
C       5.23146952     -1.65139330      1.40552566
C       5.59791102      0.69880932      0.59595153
O       5.61066657      1.70622312      1.30958035
C       6.62398049      0.57254929     -0.48577994
C       6.50899162     -0.33936207     -1.54233050
C       7.50248950     -0.40617705     -2.52401966
C       8.61113231      0.43626292     -2.46019754
C       8.73009215      1.35135816     -1.41700260
C       7.73991506      1.42153618     -0.43553780
C       1.25761831      0.85134493      1.86770260
C      -0.10806144      0.72425349      1.58821062
C      -0.60452196     -0.35963872      0.85282861
N      -1.99268889     -0.50924769      0.60789559
N      -2.80000914      0.57328714      0.81182794
C      -4.06201795      0.45164369      0.52064537
C      -4.74325461     -0.76122435      0.02325479
C      -5.97647370     -0.68293423     -0.49247398
S      -6.70512331     -2.15987732     -1.13923442
O      -5.72725165     -3.21403393     -0.86749178
O      -7.95072933     -2.30303957     -0.38982300
O      -6.87099638     -1.87254385     -2.56274927
C      -6.76843299      0.55942198     -0.58316408
C      -8.01744351      0.68493282     -1.21638277
C      -8.71740198      1.89835280     -1.24054441
C      -8.18742678      3.02613346     -0.62771925
C      -6.95353561      2.93852919      0.00622103
C      -6.25185071      1.71963552      0.02218019
C      -4.93720149      1.68505480      0.70078954
O      -4.55324479      2.62908074      1.38099779
Na      0.00000000      0.00000000      0.00000000
H      -0.97197207     -3.10003061      0.33913801
H       0.64256231     -3.35519395     -0.31851233
H      -0.51539628     -2.37834299     -1.23266500
H       2.34887294     -2.02572947      0.47508629
H       3.74519627      1.01319874      2.04281972
H       4.10918265     -0.64497104     -0.17109491
H       5.98064146     -2.07466237      0.72983117
H       4.50074753     -2.43581570      1.62768880
H       5.74166668     -1.40016910      2.34261502
H       5.65610316     -1.00357788     -1.64101807
H       7.40692432     -1.11317007     -3.34532671
H       9.37952340      0.38375476     -3.22747375
H       9.58977709      2.01481740     -1.36735441
H       7.84305426      2.14488697      0.37211874
H       1.58905873      1.71198627      2.44234278
H      -0.79243731      1.48833467      1.95081448
H      -2.17278163     -1.08015289     -0.21708258
H      -4.20947687     -1.70149693      0.07117817
H      -8.48884475     -0.16555148     -1.70836215
H      -9.68208465      1.94562665     -1.73978629
H      -8.73160649      3.96572152     -0.64329639
H      -6.53327419      3.81954158      0.48720931
