35
NC(Cc1cc(I)c(Oc2ccc(O)c(I)c2)c(I)c1)C(=O)O
N      -5.29206950      1.82282393     -0.02497736
C      -4.24769670      0.74559907     -0.08037227
C      -2.96902943      1.24836585     -0.77024658
C      -1.72118227      0.52713662     -0.30982211
C      -1.08891951      0.90082738      0.88471398
C       0.06173521      0.23228988      1.32100047
I       0.89279280      0.83738173      3.14967967
C       0.60841499     -0.80707288      0.55535820
O       1.72297996     -1.48005689      0.99446131
C       2.96516630     -1.01844779      0.60258703
C       3.20099802      0.07054803     -0.24299095
C       4.51101282      0.43621061     -0.56219133
C       5.58088978     -0.28339178     -0.03969313
O       6.83339759      0.13156561     -0.39479004
C       5.35364695     -1.37212264      0.80334263
I       6.93381279     -2.47336525      1.60398955
C       4.04553450     -1.73944482      1.12378079
C      -0.04407435     -1.20950780     -0.61835847
I       0.62793038     -2.82459582     -1.77556034
C      -1.19416490     -0.53820405     -1.05186166
C      -4.86218477     -0.45376269     -0.83129703
O      -4.24971880     -1.38456642     -1.32658875
O      -6.21942410     -0.35758993     -0.86719366
H      -5.29555879      2.31491721     -0.92586782
H      -4.97568504      2.52994416      0.64558704
H      -4.06196151      0.41923016      0.94922167
H      -2.81936093      2.31616457     -0.55824935
H      -3.05893500      1.17663499     -1.86217045
H      -1.50204548      1.71440881      1.47813871
H       2.38885464      0.65094166     -0.66946029
H       4.69631100      1.28157939     -1.21957115
H       7.47074610     -0.46546157      0.03680807
H       3.84834269     -2.58496461      1.77826490
H      -1.69775428     -0.85734726     -1.96423850
H      -6.44280121      0.49333255     -0.41227174
