72
Cc1cc(C)cc(N2C(=O)c3ccc4c5ccc6c7c(ccc(c8ccc(c3c48)C2=O)c75)C(=O)N(c2cc(C)cc(C)c2)C6=O)c1
C      10.08199550      2.35448979      0.54050550
C       9.32702285      1.07672242      0.31880757
C      10.01058102     -0.11752295      0.08010480
C       9.30634207     -1.29794033     -0.16713977
C      10.03872048     -2.59046488     -0.37918422
C       7.90190399     -1.27521390     -0.15785281
C       7.18008783     -0.08943615      0.06270832
N       5.72851393     -0.07452352      0.05369050
C       5.05530782      0.81462557      0.90515579
O       5.57823874      1.54567028      1.74602849
C       3.57389953      0.84224141      0.83975447
C       2.88667970      1.75788312      1.63141193
C       1.49456801      1.78779242      1.62071068
C       0.72188928      0.90677794      0.82866827
C      -0.71221230      0.92501042      0.81687433
C      -1.47520671      1.82602528      1.59572565
C      -2.86763683      1.83152308      1.58338885
C      -3.56476733      0.93277375      0.78108990
C      -2.86707618      0.03005487     -0.01230677
C      -3.57429332     -0.85429844     -0.81786229
C      -2.88707544     -1.77162213     -1.60756056
C      -1.49495399     -1.80229662     -1.59605125
C      -0.72225922     -0.92056655     -0.80484789
C       0.71186327     -0.93829371     -0.79360461
C       1.47493401     -1.83851221     -1.57330010
C       2.86740361     -1.84230557     -1.56279878
C       3.56455527     -0.94292985     -0.76122872
C       2.86673523     -0.04186604      0.03393065
C       1.42868551     -0.02445433      0.02300359
C       5.04712852     -0.95015109     -0.80528351
O       5.56477681     -1.69560211     -1.63668576
C      -1.42905655      0.01137050      0.00002339
C      -5.05565913     -0.82506328     -0.88529925
O      -5.57847156     -1.55955348     -1.72322666
N      -5.72861837      0.06923270     -0.03902589
C      -7.17996589      0.09082521     -0.05405808
C      -7.89652978      1.28120889      0.15890200
C      -9.30078819      1.31141914      0.16122484
C     -10.02748713      2.60844514      0.36471093
C     -10.00999205      0.13379528     -0.08516931
C      -9.33160379     -1.06492657     -0.31621720
C     -10.09255733     -2.33934744     -0.53674298
C      -7.92744659     -1.07734314     -0.28289754
C      -5.04731964      0.94347674      0.82138716
O      -5.56549071      1.69059670      1.65099278
C       7.92267851      1.08181021      0.29222046
H      10.22877822      2.87214990     -0.41235838
H       9.53779413      3.01482742      1.22387014
H      11.06092089      2.15870442      0.99056256
H      11.09875531     -0.12838186      0.08688037
H      10.16852887     -3.10777110      0.57638540
H       9.48748424     -3.24281927     -1.06462596
H      11.02452670     -2.41430518     -0.82236881
H       7.38173524     -2.21935849     -0.30350583
H       3.42606969      2.45507475      2.27158825
H       1.03171741      2.52928714      2.26646087
H      -1.00435664      2.55628974      2.24842811
H      -3.39968181      2.54294368      2.21397832
H      -3.42645926     -2.46933197     -2.24716142
H      -1.03212648     -2.54487727     -2.24053063
H       1.00412491     -2.56893576     -2.22586959
H       3.39942830     -2.55262645     -2.19461746
H      -7.37195269      2.22303770      0.30376128
H      -9.47430490      3.26248878      1.04699753
H     -10.15346910      3.12069058     -0.59405923
H     -11.01463045      2.43923927      0.80747604
H     -11.09806103      0.15041376     -0.09732783
H     -10.25288712     -2.84906256      0.41823794
H     -11.06528083     -2.14017593     -0.99872156
H      -9.54572707     -3.00848637     -1.20943396
H      -7.42856655     -2.03465913     -0.41661297
H       7.41959658      2.03610764      0.43171454
