104
CCCCC(CC)C1CCON1CCOC(=O)NCCCCCCNC(=O)OCCN1OCCC1C(CC)CCCC
C      11.73708300      1.79595362     -4.65359565
C      10.66629335      0.93364760     -4.00427980
C       9.76623591      1.75517682     -3.07791462
C       8.69523081      0.90004434     -2.38147593
C       8.99469957      0.54492732     -0.89653005
C      10.33994197     -0.20165873     -0.74591183
C      10.72025696     -0.52062269      0.69458980
C       7.81493401     -0.22596621     -0.23246099
C       7.56178985     -1.61994581     -0.79867306
C       6.06046061     -1.71726372     -0.92268200
O       5.55341471     -0.61404069     -0.17527705
N       6.51869997      0.46507410     -0.37415860
C       6.28483720      1.41696045      0.73123153
C       5.01172010      2.25895756      0.53158856
O       3.80369971      1.48478086      0.57221613
C       3.40438700      1.07883506      1.79886350
O       3.94091824      1.36005413      2.85897144
N       2.31087141      0.28348141      1.64926644
C       1.78169088     -0.50544413      2.73373893
C       0.38074765     -1.02902837      2.42733449
C      -0.66969996      0.06483911      2.19844020
C      -0.92520240      0.98778758      3.39362180
C      -1.41074355      0.29507705      4.67298866
C      -2.66468613     -0.56264072      4.50683600
N      -3.80963652      0.20369457      4.08030230
C      -5.01418645     -0.38232513      3.84052658
O      -5.30624865     -1.53946607      4.10051824
O      -5.81915899      0.52206439      3.24000487
C      -7.11409726      0.04275971      2.84401922
C      -7.07713327     -0.83312116      1.57836191
N      -6.77807661     -0.05952766      0.35034417
O      -5.35027067      0.27508927      0.45666402
C      -4.64945311     -0.42606560     -0.56589490
C      -5.66041437     -0.59891332     -1.65768350
C      -6.93515918     -0.87535454     -0.87660432
C      -8.21628005     -0.50898287     -1.69148915
C      -8.29092134     -1.29699470     -3.02421284
C      -8.47705274     -2.80270044     -2.87586770
C      -9.50441957     -0.65005844     -0.84386236
C     -10.82297233     -0.30440800     -1.54958505
C     -10.91517233      1.11056925     -2.12616687
C     -10.76817135      2.20543065     -1.07971255
H      12.41162909      2.21957059     -3.90080852
H      11.28752406      2.62052282     -5.21614245
H      12.33540202      1.19935472     -5.35027925
H      11.14895077      0.11709176     -3.45848349
H      10.05695401      0.47339362     -4.79185626
H      10.36255019      2.31345355     -2.34442628
H       9.25571368      2.50889577     -3.69438005
H       8.50625270     -0.00949595     -2.96411412
H       7.76385138      1.47787623     -2.41150573
H       9.09961511      1.50131769     -0.36226467
H      10.32818469     -1.13023922     -1.32849125
H      11.14620720      0.41965744     -1.15259271
H      10.67586961      0.37523731      1.32226377
H      11.74284626     -0.91033682      0.73283660
H      10.06535763     -1.28259484      1.12699355
H       8.03293402     -0.34482815      0.83775393
H       7.92694534     -2.37935178     -0.09497386
H       8.04006548     -1.82652923     -1.76148902
H       5.66865877     -2.65288603     -0.51381937
H       5.73063378     -1.62453494     -1.96353756
H       7.12644303      2.11729713      0.78321332
H       6.24671045      0.88474779      1.68933427
H       4.96372315      3.05863016      1.28211144
H       5.04050439      2.75220566     -0.44671869
H       2.14676992      0.01003055      0.68934414
H       2.46564566     -1.34831099      2.88122521
H       1.79303350      0.08621229      3.65466657
H       0.05917248     -1.69222782      3.23898915
H       0.42570586     -1.64986869      1.52354300
H      -0.36747140      0.68257904      1.34337590
H      -1.61096848     -0.41065843      1.89536535
H      -0.01338240      1.55010251      3.62565363
H      -1.66481565      1.73998287      3.09127546
H      -0.60669000     -0.32942522      5.07722280
H      -1.60619373      1.06977842      5.42572504
H      -2.50364914     -1.37594813      3.79305561
H      -2.91994850     -1.03032989      5.46422292
H      -3.70076167      1.10191679      3.63137919
H      -7.74656021      0.92154125      2.67780349
H      -7.57026297     -0.51254609      3.67393626
H      -6.35243853     -1.64783393      1.69419603
H      -8.06490237     -1.29480091      1.47999936
H      -3.78307908      0.15781709     -0.88842638
H      -4.30786244     -1.38677912     -0.16689713
H      -5.74834956      0.33522057     -2.22810161
H      -5.38774192     -1.40277190     -2.34702467
H      -6.95686553     -1.94137164     -0.61524352
H      -8.12725956      0.55201304     -1.96482367
H      -7.38464956     -1.11476451     -3.61305779
H      -9.10991029     -0.90648292     -3.63723605
H      -9.42245481     -3.04813632     -2.38345548
H      -8.48484766     -3.27560760     -3.86431908
H      -7.66381128     -3.25680118     -2.30277854
H      -9.57882843     -1.67671744     -0.46517024
H      -9.42857955     -0.00894744      0.04074559
H     -11.63946309     -0.44156787     -0.82863362
H     -11.01528196     -1.02628105     -2.35146131
H     -10.16400267      1.25535992     -2.91028115
H     -11.89577505      1.22265173     -2.60541765
H     -11.47496974      2.06175144     -0.25598913
H     -10.96608885      3.18325829     -1.52956683
H      -9.75474425      2.23315930     -0.66885438
