46
O.O.O.O.[Na+].[Na+].[O-]B([O-])[O-].[O-]B([O-])[O-].[O-]B([O-])[O-].[O-]B([O-])[O-].[O-]B([O-])[O-].[O-]B([O-])[O-].[O-]B([O-])[O-].[O-]B([O-])[O-]
O      -0.00205008      0.38311054     -0.00000000
O      -0.00011176      0.38233663     -0.00000000
O      -0.00123809      0.39273246     -0.00000000
O      -0.00906982      0.38712023     -0.00000000
Na      0.00000000      0.00000000      0.00000000
Na      0.00000000      0.00000000      0.00000000
O       1.32196254     -0.60948517     -0.05062688
B      -0.00293117     -0.01352955      0.15096135
O      -1.20395618     -0.80809438     -0.05125685
O      -0.11507519      1.43110911     -0.04907763
O       1.29369573     -0.64414883     -0.06404620
B      -0.00275998     -0.00973488      0.10655020
O      -1.22223532     -0.78490165     -0.00941498
O      -0.06870042      1.43878536     -0.03308902
O       1.29495981     -0.43906588      0.82496203
B       0.00544668     -0.08240328      0.21372146
O      -1.17246038     -0.74945176      0.78984791
O      -0.12794612      1.27092091     -0.28838338
O       1.30197492     -0.64021013     -0.04681198
B      -0.00623787      0.00266068      0.12123892
O      -1.20831940     -0.81118881     -0.03430767
O      -0.08741766      1.44873826     -0.04011926
O       1.25253274     -0.50075479     -0.70704773
B      -0.10037720      0.05248028     -0.47596301
O      -1.05331414     -0.92453728      0.08835954
O      -0.09884141      1.37281178      0.18345979
O       1.30488252     -0.63026405     -0.04405044
B      -0.00522110     -0.00030020      0.12757680
O      -1.20294656     -0.81141950     -0.04114586
O      -0.09671487      1.44198375     -0.04238050
O       1.24308880     -0.70972710      0.15145738
B      -0.01985507      0.00742580     -0.00279407
O      -1.24073559     -0.75382816     -0.14660399
O       0.01750187      1.45612946     -0.00205933
O       1.32933681     -0.60788483     -0.01350471
B       0.00161728     -0.01229730      0.04099050
O      -1.20654655     -0.81692415     -0.01410573
O      -0.12440754      1.43710629     -0.01338005
H      -0.79956155     -0.19232242     -0.00000000
H       0.80161163     -0.19078812      0.00000000
H      -0.79775285     -0.19124037     -0.00000000
H       0.79786461     -0.19109625      0.00000000
H       0.80393458     -0.19595203      0.00000000
H      -0.80269650     -0.19678043     -0.00000000
H      -0.79823558     -0.19687402     -0.00000000
H       0.80730540     -0.19024621      0.00000000
