79
CN[C@@H]1[C@H](O[C@H]2[C@H](O[C@@H]3[C@@H](NC(=N)N)[C@H](O)[C@@H](NC(=N)N)[C@H](O)[C@H]3O)O[C@@H](C)[C@]2(O)C=O)O[C@@H](CO)[C@H](O)[C@H]1O
C      -3.06512629      4.00695753      1.23389721
N      -3.96348308      3.01995372      0.64579957
C      -3.72715655      1.64586919      1.17624416
C      -2.40648557      0.96211280      0.71463400
O      -2.32463323      1.05054714     -0.71096341
C      -0.98106228      1.04260644     -1.21676128
C      -0.24688923     -0.31284480     -1.19158869
O       0.75810727     -0.23299851     -0.17105608
C       1.46033742     -1.46477314      0.06712966
C       2.03712881     -1.37385069      1.51110516
N       2.03738528     -2.68879465      2.18173549
C       0.90004022     -3.30615893      2.57318304
N      -0.24036845     -2.78489283      2.83011454
N       1.05051759     -4.63789970      2.64843580
C       3.48488403     -0.81715675      1.53783844
O       3.74511978     -0.19181159      2.80771234
C       3.70175958      0.18842047      0.39318497
N       5.00017995      0.86246128      0.57185643
C       5.33346789      2.00699750     -0.06665866
N       4.74888137      2.56842515     -1.05878552
N       6.43596946      2.56359399      0.45613277
C       3.65315318     -0.57321026     -0.95270574
O       3.38426687      0.34251757     -2.02503062
C       2.60213236     -1.71281065     -0.94641424
O       3.26175733     -2.94682539     -0.58767722
O       0.37540873     -0.49349988     -2.46921721
C       0.27751338      0.74426464     -3.19238818
C       0.33575396      0.44914994     -4.68050587
C      -1.01015197      1.39635734     -2.70403420
O      -2.16452525      0.84586043     -3.33329804
C      -0.94037717      2.91222780     -2.83683298
O      -1.92589935      3.63477931     -2.97636838
O      -2.32984473     -0.38797624      1.16815289
C      -3.42339924     -1.21365240      0.71127500
C      -3.21407640     -2.64428098      1.22031269
O      -1.97910570     -3.16603973      0.71804798
C      -4.76548761     -0.65768742      1.20582828
O      -5.86705980     -1.43378186      0.72107505
C      -4.92109730      0.78571277      0.72422724
O      -6.14356906      1.32224663      1.25636146
H      -3.30463922      4.99631987      0.82703833
H      -2.01824733      3.79654222      0.99799996
H      -3.18657797      4.05991298      2.32057138
H      -3.80187747      2.99885388     -0.36849265
H      -3.74800356      1.68414284      2.27549406
H      -1.56563888      1.49582688      1.16862389
H      -0.40112913      1.79510498     -0.66428278
H      -0.92193828     -1.15274717     -0.99785666
H       0.74736836     -2.29650042      0.02242174
H       1.41807036     -0.68821672      2.10393221
H       2.61734441     -3.34267774      1.65326239
H      -0.18715235     -1.76476433      2.76061005
H       1.89884515     -4.95476586      3.10545075
H       0.23233192     -5.05833741      3.07726336
H       4.21982735     -1.62647775      1.45239477
H       3.52114131     -0.86169551      3.48251370
H       2.93366019      0.96877595      0.44370998
H       5.18794145      0.95360157      1.57439064
H       3.91357251      2.03028845     -1.31020630
H       6.76992418      3.32243725     -0.12965741
H       7.16616884      1.90723891      0.69278433
H       4.63873390     -1.01551756     -1.15304108
H       4.23108907      0.47961275     -2.50191975
H       2.20098504     -1.86005031     -1.95207491
H       3.63509594     -3.31273684     -1.41351571
H       1.14947317      1.34840958     -2.91677388
H      -0.43108621     -0.27103704     -4.97741255
H       0.22083681      1.36047068     -5.27393004
H       1.30247074     -0.00150250     -4.93237989
H      -2.92885269      1.20040795     -2.84093885
H       0.06294116      3.35832239     -2.72193870
H      -3.40030490     -1.24318597     -0.38551997
H      -4.01683970     -3.30502525      0.87922038
H      -3.19005451     -2.67507639      2.31874128
H      -1.35815525     -3.15920668      1.48480113
H      -4.80733729     -0.68104150      2.30262149
H      -6.65881975     -0.88629334      0.89455159
H      -5.03245277      0.79698600     -0.36819640
H      -6.05268082      2.29348591      1.11574226
