75
Cc1cc(N/N=C2\C(=O)C=Cc3ccccc32)c(S(=O)(=O)[O-])cc1Cl.Cc1cc(N/N=C2\C(=O)C=Cc3ccccc32)c(S(=O)(=O)[O-])cc1Cl.[Ba+2]
C      -5.41296090     -0.36717387      1.80618391
C      -4.33025115     -0.18406638      0.80611945
C      -3.04929394     -0.62820315      1.01033512
C      -2.00490872     -0.45320426      0.08369989
N      -0.75874894     -0.98140639      0.39650259
N       0.46806267     -0.76718180     -0.20265566
C       1.51716694     -0.37257311      0.45684768
C       1.43575259     -0.13398896      1.88462126
O       0.37354422     -0.29732310      2.50989702
C       2.63936822      0.31454512      2.61742368
C       3.76973730      0.49100985      1.96005649
C       3.87687218      0.25845637      0.52339943
C       5.07430840      0.45992293     -0.13366285
C       5.20300915      0.25580290     -1.48095160
C       4.13862714     -0.16086838     -2.24418097
C       2.92396334     -0.36929391     -1.59691952
C       2.79508393     -0.16218806     -0.23208008
C      -2.29662493      0.19208385     -1.07110622
S      -1.05141400      0.43744874     -2.27157111
O      -1.64384861      1.11869500     -3.50553806
O      -0.55404156     -0.91255495     -2.74123602
O       0.18687618      1.42467296     -1.75742350
C      -3.59731331      0.66814259     -1.32849842
C      -4.58190263      0.46796804     -0.38533529
Cl     -6.20052604      1.05813418     -0.68738755
C       4.50681027     -2.27054895     -1.32063433
C       3.84065833     -1.28259314     -0.44902352
C       2.62596687     -0.69672154     -0.71267720
C       2.04894114      0.23069436      0.15013519
N       0.80445075      0.86523727     -0.19865781
N      -0.36485219      0.19750201     -0.12975167
C      -1.53729203      0.71996023     -0.22542411
C      -1.71831016      2.14408890     -0.42263963
O      -0.72766509      2.90790422     -0.43028611
C      -3.07224863      2.69598367     -0.61509218
C      -4.10136342      1.89412840     -0.60412145
C      -3.95531331      0.46020920     -0.40727572
C      -5.10540551     -0.32978377     -0.41676899
C      -4.98799006     -1.69263955     -0.23869965
C      -3.74275814     -2.27215177     -0.05057067
C      -2.58987553     -1.50542760     -0.03779508
C      -2.73856683     -0.15025121     -0.21961080
C       2.75185179      0.53723797      1.28826783
S       1.99940187      1.71815919      2.37429122
O       1.89339188      3.00735177      1.59886223
O       0.66175930      1.22720811      2.84994652
O       2.97761337      2.00966018      3.70856793
C       3.96621838     -0.01756469      1.59693540
C       4.50069408     -0.92987470      0.71586058
Cl      6.07084430     -1.63565983      1.11435601
Ba      0.00000000      0.00000000      0.00000000
H      -6.20927169      0.42346177      1.67741619
H      -5.88381913     -1.35545501      1.71667106
H      -5.05501664     -0.26136016      2.84376565
H      -2.87564932     -1.14257021      1.95934125
H      -0.73888629     -1.68882150      1.21151246
H       2.59546686      0.49693501      3.70522143
H       4.64963620      0.82429179      2.49976682
H       5.93584606      0.78889770      0.43943323
H       6.13843471      0.41149498     -1.98613615
H       4.21389056     -0.33119867     -3.31915032
H       2.07116463     -0.69745234     -2.15293872
H      -3.76233349      1.17492041     -2.27112814
H       4.08439984     -2.20206056     -2.33309608
H       5.60648859     -2.10662626     -1.40791620
H       4.34187489     -3.32381037     -0.98656873
H       2.10973662     -0.98297928     -1.63381371
H       0.92164753      1.83332061     -0.51368170
H      -3.13858146      3.76686057     -0.76188190
H      -5.10385282      2.29047935     -0.74756718
H      -6.07634937      0.14376826     -0.56455385
H      -5.90467831     -2.26408515     -0.25537412
H      -3.68693294     -3.34358693      0.08483969
H      -1.60653542     -1.92911469      0.11067438
H       4.44582141      0.28572575      2.50607839
