73
C[C@@H]1O[C@@H](O[C@H]2[C@H](Oc3cc(O)c4c(c3)O[C@H](c3ccc(O)cc3)CC4=O)O[C@H](CO)[C@@H](O)[C@@H]2O)[C@H](O)[C@H](O)[C@H]1O
C      -2.60758568     -3.39790120      0.39220482
C      -3.35301284     -2.70477205     -0.74391921
O      -3.17653272     -1.27665082     -0.70496207
C      -3.86512215     -0.64191343      0.36725862
O      -3.65632883      0.77936412      0.32215703
C      -2.25891134      1.13160848      0.41095827
C      -1.70153616      1.44775354     -0.99996841
O      -0.28966151      1.67938573     -0.88941668
C       0.57917205      0.65682545     -1.14707559
C       0.33563253     -0.46074756     -1.95026917
C       1.34141555     -1.40904536     -2.15591690
O       1.02968441     -2.46723800     -2.97032831
C       2.59430318     -1.25380900     -1.55963173
C       2.83619035     -0.14789826     -0.74443507
C       1.84162802      0.81543411     -0.56201933
O       4.02911818      0.07540484     -0.10974745
C       4.74818219     -1.14264929      0.14510802
C       6.00615973     -0.76337477      0.90006926
C       6.10066497     -1.04305517      2.27349843
C       7.22794151     -0.66643827      3.00424107
C       8.26912936     -0.00512914      2.36839922
O       9.34712698      0.35186758      3.11972634
C       8.20312342      0.28441743      1.00866819
C       7.06927540     -0.08694203      0.28024283
C       5.02008387     -1.88768154     -1.15831590
C       3.69457572     -2.20958945     -1.79249244
O       3.51591915     -3.18254472     -2.52198683
O      -2.31107586      2.59860504     -1.60838038
C      -2.75112304      3.63833622     -0.72512912
C      -2.68297354      4.96928027     -1.48803052
O      -3.23853375      6.05651212     -0.75825537
C      -1.93611797      3.67774550      0.57509789
O      -2.29593703      4.77945517      1.41693538
C      -2.13527064      2.35885249      1.33767235
O      -1.04071714      2.20929646      2.26612020
C      -5.38685571     -0.86836972      0.27397608
O      -6.05185597     -0.29516244      1.41527821
C      -5.70208002     -2.36503915      0.21327595
O      -5.48095504     -2.94864375      1.50429848
C      -4.84787522     -3.06409788     -0.85168266
O      -5.33438082     -2.67374531     -2.14701490
H      -2.67546439     -4.48759847      0.29339386
H      -2.97777594     -3.12092894      1.38216968
H      -1.54810897     -3.11357944      0.36809238
H      -2.86591424     -3.01852745     -1.67556609
H      -3.49314066     -0.98698524      1.33721606
H      -1.68709332      0.30753838      0.86061801
H      -1.94548155      0.64256515     -1.69154684
H      -0.60544107     -0.61383692     -2.46795640
H       1.83187169     -3.02871879     -3.07225125
H       2.05431172      1.68965023      0.05106521
H       4.12867312     -1.77285830      0.80187565
H       5.28753053     -1.54231913      2.79548259
H       7.28696283     -0.88073165      4.06963244
H      10.02951769      0.71753804      2.53023679
H       9.00310369      0.81491031      0.50558121
H       7.01851668      0.17603083     -0.77483689
H       5.56097113     -2.81965668     -0.96149161
H       5.58559516     -1.28916325     -1.88095457
H      -3.80810211      3.45522294     -0.48097031
H      -3.23023468      4.88572597     -2.43385510
H      -1.64576887      5.21032559     -1.74738407
H      -2.99239823      5.93809751      0.18563594
H      -0.87626567      3.80995925      0.33802242
H      -1.83601879      4.63209718      2.26757899
H      -3.03130880      2.43432207      1.96617336
H      -0.21613567      2.11415630      1.74893619
H      -5.78123310     -0.36609322     -0.61747407
H      -5.75689154      0.63516328      1.44611909
H      -6.76805296     -2.49585294     -0.00998170
H      -5.98815352     -2.38302013      2.12364545
H      -4.96738115     -4.15156153     -0.78097409
H      -4.77557260     -1.93957718     -2.48244091
