83
COC1C(O)[C@@H](O[C@H]2CC[C@]3(C=O)C4CC[C@]5(C)[C@@H](C6=CC(=O)OC6)CC[C@]5(O)C4CC[C@@H]3C2)OC(C)[C@H]1O
C      -9.10029313      0.89277327     -0.76606883
O      -8.38520714     -0.26833521     -1.18148086
C      -7.03447443      0.02137237     -1.61191000
C      -6.14228999      0.52640125     -0.46420948
O      -6.16401843      1.96493556     -0.42933880
C      -4.70229704      0.01857962     -0.64871215
O      -3.90401653      0.58873011      0.39965831
C      -2.50201478      0.44150591      0.15236550
C      -1.95728671      1.74889907     -0.42148182
C      -0.43243363      1.72576978     -0.55715779
C       0.29937302      1.37561976      0.77152357
C       0.05068944      2.52477818      1.76212150
O       0.00654777      3.71034109      1.44750123
C       1.85260940      1.28096299      0.52976811
C       2.70140394      1.38906160      1.81817820
C       4.20293119      1.39983380      1.51420599
C       4.70416327      0.14991817      0.73604087
C       4.79441734     -1.01933637      1.73633920
C       6.10744014      0.48195868      0.08868308
C       7.18317678     -0.57773197      0.12063215
C       8.30414730     -0.51313679      0.84243068
C       9.06373785     -1.73058470      0.57808932
O      10.13766112     -2.00086703      1.08221150
O       8.38173131     -2.49705511     -0.31180132
C       7.15879043     -1.84252511     -0.65986546
C       5.80654083      0.95425346     -1.35129073
C       4.28833351      0.95107202     -1.50516265
C       3.79216192     -0.10410814     -0.49800457
O       4.09704114     -1.38189886     -1.06859905
C       2.25873683      0.00291407     -0.25663917
C       1.66379475     -1.26407034      0.39167319
C       0.15334165     -1.17249646      0.54877282
C      -0.27710512      0.06022494      1.36369449
C      -1.81377800      0.10636280      1.47831701
O      -4.62091237     -1.40293871     -0.58089576
C      -5.67345153     -2.11966447     -1.24261520
C      -6.54392747     -2.79453206     -0.18422778
C      -6.45912470     -1.26214976     -2.24713359
O      -7.47268467     -2.02174825     -2.90679470
H      -8.74970637      1.22219061      0.21748953
H      -8.99950966      1.70579194     -1.49370000
H     -10.15726249      0.62537121     -0.68535169
H      -7.11317751      0.77811077     -2.40618801
H      -6.53187245      0.18933611      0.50351482
H      -5.47992834      2.21145757      0.22400488
H      -4.30855451      0.36956405     -1.61271052
H      -2.32126984     -0.37405432     -0.55884394
H      -2.40958679      1.93791280     -1.40331886
H      -2.27352865      2.59137911      0.20689088
H      -0.17445160      1.00849417     -1.34389959
H      -0.10155084      2.70310594     -0.92917569
H      -0.01669189      2.23451236      2.82510564
H       2.11803372      2.15686860     -0.07990580
H       2.47849358      2.32600440      2.34322232
H       2.45864875      0.58143066      2.51479361
H       4.75823007      1.49685763      2.45720043
H       4.42332441      2.31500484      0.94902570
H       5.61290517     -0.86076721      2.44842981
H       4.95856675     -1.98276748      1.24593876
H       3.89396571     -1.12853878      2.34219553
H       6.52247387      1.34749886      0.62509332
H       8.64467900      0.25554511      1.51448149
H       6.33408018     -2.50598859     -0.39124217
H       7.15735700     -1.67705323     -1.74026622
H       6.24625002      0.30349058     -2.11333982
H       6.21015448      1.95650752     -1.53113465
H       4.01002234      0.70820449     -2.53684780
H       3.90731023      1.95383392     -1.28971441
H       3.52690074     -1.50665685     -1.85033610
H       1.79868306      0.06126034     -1.25352976
H       2.09597155     -1.44940753      1.37664048
H       1.88934701     -2.14732293     -0.21795751
H      -0.20942799     -2.08131875      1.04549012
H      -0.29567471     -1.16880973     -0.45004119
H       0.11307029     -0.07293669      2.38324543
H      -2.10796980      0.84288468      2.23764003
H      -2.19628590     -0.85220017      1.85314712
H      -5.18576105     -2.93054041     -1.79900617
H      -7.08378556     -2.07072867      0.42516983
H      -5.91771569     -3.36813801      0.50564593
H      -7.27010588     -3.47544681     -0.63275016
H      -5.74852807     -0.94910828     -3.02290762
H      -8.32957764     -1.62392299     -2.62920928
