10
Ic1[nH]c(I)c(I)c1I
I       3.06111094     -1.17707980     -0.10447507
C       1.12694782     -0.41736431     -0.03790592
N       0.02456722     -1.22707226     -0.04326406
C      -1.10930773     -0.46371410      0.00684130
I      -3.01145835     -1.30294300      0.01703626
C      -0.72758862      0.85923398      0.04502241
I      -2.00435877      2.49801236      0.12859169
C       0.69259383      0.88866942      0.01660470
I       1.90271199      2.57899232      0.05041158
H       0.04478168     -2.23673462     -0.07886290
