7
O1[Pb]O[Pb]2O[Pb]1O2
O       0.72364136      1.74200054      0.05113518
Pb      2.41171794     -0.43976366     -0.13386670
O       0.72201633     -1.22137869      1.05097320
Pb     -0.53881925     -1.44398719     -0.35616106
O      -1.90802709      0.55262375      1.21643569
Pb     -0.17977697      1.20241693     -0.60605759
O      -1.23075231     -0.39191168     -1.22245870
