95
CCOC(=O)CC(NC1CCC(CC2CCC(NC(CC(=O)OCC)C(=O)OCC)C(C)C2)CC1C)C(=O)OCC
C     -10.79759246     -1.73536612     -1.59957143
C     -10.00206527     -0.91561731     -2.60092295
O      -9.09342480     -0.04512778     -1.90956417
C      -7.87145607     -0.56789281     -1.61479348
O      -7.48733510     -1.68898234     -1.92197083
C      -7.04116198      0.45572880     -0.88131158
C      -6.12140757     -0.21030468      0.14128677
N      -5.06115025      0.76941552      0.51184206
C      -3.79687632      0.57844140     -0.21282148
C      -3.06022149     -0.68360805      0.29024954
C      -1.53428325     -0.57387693      0.27134623
C      -1.02608072      0.26289742     -0.90159622
C       0.51899639      0.27508424     -1.04331247
C       1.30198106      0.74727761      0.20831897
C       1.80062410     -0.42695116      1.06737722
C       3.05317253     -1.11482922      0.52066451
C       4.19212864     -0.10457127      0.31701608
N       5.42652853     -0.74259554     -0.17437731
C       6.17486829     -1.51813901      0.85449584
C       7.25066182     -2.39514109      0.20415407
C       8.41985067     -1.61208536     -0.34698625
O       8.40449464     -0.42285112     -0.63390472
O       9.49623708     -2.43822832     -0.49189107
C      10.70269334     -1.81619031     -0.95921627
C      10.71096068     -1.74319318     -2.47329102
C       6.81776031     -0.65759424      1.95526478
O       7.25501023     -1.13401673      2.99934536
O       6.87066072      0.66358031      1.63001224
C       7.50587966      1.49486353      2.60664972
C       7.51966260      2.91360049      2.07778531
C       3.75657448      1.03273726     -0.64500727
C       3.63979770      0.60413984     -2.11407462
C       2.46412203      1.70062397     -0.13455904
C      -1.60599074      1.69134979     -0.87655902
C      -2.90967854      1.83561821     -0.06412592
C      -3.62447436      3.12461781     -0.49092053
C      -6.90152853     -0.58266474      1.42227265
O      -6.52651015     -0.30584903      2.55790327
O      -8.01370890     -1.31009259      1.12941698
C      -8.78634541     -1.77410893      2.24547459
C      -9.83086356     -0.73848647      2.61441334
H     -11.31178620     -1.07560073     -0.88927870
H     -11.54362971     -2.35249861     -2.10870074
H     -10.14187677     -2.38838671     -1.01097481
H     -10.68290179     -0.27424885     -3.17570764
H      -9.47651326     -1.55741587     -3.32225780
H      -6.46663136      0.99019315     -1.65025026
H      -7.70233025      1.17895726     -0.38749725
H      -5.68183714     -1.14389325     -0.22629633
H      -4.89235191      0.70260858      1.52166701
H      -4.01229558      0.45665776     -1.28425213
H      -3.36130179     -0.94040239      1.31573789
H      -3.36713418     -1.53465503     -0.33058871
H      -1.20699348     -0.12795123      1.21798778
H      -1.10914435     -1.58404485      0.23203409
H      -1.40616302     -0.21125956     -1.81904939
H       0.75759992      0.91941734     -1.89937533
H       0.84012600     -0.73512377     -1.32641743
H       0.61189477      1.32922103      0.83381890
H       1.01389727     -1.17540262      1.20366006
H       2.02886375     -0.04584655      2.07167396
H       2.82090751     -1.63669783     -0.41494119
H       3.34665955     -1.88754086      1.24017313
H       4.39102619      0.37010984      1.28646953
H       6.06668756     -0.00846165     -0.50673020
H       5.47337428     -2.19170827      1.36010784
H       7.63962677     -3.08397309      0.96575656
H       6.82331170     -2.99415110     -0.60778573
H      10.83540846     -0.82510074     -0.51008763
H      11.53507507     -2.43742804     -0.61438135
H       9.90360017     -1.10036134     -2.84061756
H      11.66251457     -1.34390234     -2.83641466
H      10.55755919     -2.73601344     -2.90924038
H       8.53122961      1.15253626      2.77899483
H       6.94122501      1.45251744      3.54321008
H       7.94543433      3.60079628      2.81300407
H       6.50849019      3.24700238      1.82568312
H       8.11298707      2.97318350      1.16047374
H       4.53761776      1.80683473     -0.61795906
H       4.61536157      0.31700601     -2.51737332
H       2.96292968     -0.24064306     -2.25474955
H       3.27651435      1.43355498     -2.72845104
H       2.12786414      2.46997393     -0.84114794
H       2.72197714      2.24208030      0.78730026
H      -1.77560742      1.99972749     -1.91778171
H      -0.87759942      2.40816376     -0.48066016
H      -2.63651091      1.94926322      0.99411328
H      -4.47803581      3.34429718      0.15806427
H      -3.99215677      3.05040272     -1.52031102
H      -2.94506152      3.98148434     -0.43541782
H      -8.14899008     -2.02255933      3.10237183
H      -9.28076247     -2.69894721      1.92881705
H     -10.45343374     -0.49726130      1.74669181
H      -9.35638244      0.19257491      2.94310231
H     -10.47284226     -1.10838236      3.41927155
