78
CCc1cc(C)cc(CC)c1Nc1ccc(Nc2c(CC)cc(C)cc2CC)c2c1C(=O)c1ccccc1C2=O
C       4.73781375      0.35949635      2.75970112
C       3.72670903     -0.68157425      2.30223728
C       4.09807284     -1.27803909      0.96238969
C       4.92189169     -2.41837675      0.95159749
C       5.32268111     -3.01392507     -0.24739442
C       6.23049590     -4.20778212     -0.23749349
C       4.91954318     -2.44032306     -1.45555761
C       4.09668310     -1.30117007     -1.48094352
C       3.72977589     -0.70609700     -2.82318089
C       4.66770290      0.42508854     -3.21878328
C       3.68223360     -0.71348202     -0.26408998
N       2.83841655      0.42655324     -0.29185102
C       1.41830779      0.40646198     -0.16464415
C       0.69237121     -0.72780873     -0.54856725
C      -0.70326044     -0.72935991     -0.54480893
C      -1.42972909      0.40352312     -0.15762459
N      -2.85086230      0.42024956     -0.27727195
C      -3.69168988     -0.72189724     -0.23419403
C      -4.09301833     -1.28005213      1.00011420
C      -3.70649894     -0.67661059      2.33263119
C      -4.71759735      0.36054012      2.79891607
C      -4.91404876     -2.42237083      1.00503480
C      -5.34403525     -3.01337957     -0.18595491
C      -6.19378355     -4.24887362     -0.15952608
C      -4.93100512     -2.46358194     -1.40188808
C      -4.11103056     -1.32269058     -1.44299739
C      -3.74935672     -0.74249748     -2.79323240
C      -4.68687251      0.38665898     -3.19557721
C      -0.70907526      1.56123061      0.21924747
C       0.69721636      1.56261670      0.21601111
C       1.42394978      2.78323139      0.65162989
O       2.63087463      2.75550803      0.87425121
C       0.68733972      4.04288364      0.84239449
C       1.38691951      5.23948056      1.04605867
C       0.68849072      6.43138262      1.24550619
C      -0.70583866      6.42982526      1.24919691
C      -1.40265250      5.23642484      1.05334091
C      -0.70140098      4.04142934      0.84589677
C      -1.43607088      2.78023264      0.65857658
O      -2.64188930      2.74972165      0.88684034
H       5.73493471     -0.07963641      2.87220028
H       4.81546933      1.18602576      2.04628222
H       4.44019663      0.77454732      3.72784478
H       2.72471697     -0.24210579      2.27052905
H       3.66474000     -1.48034210      3.05227836
H       5.25765271     -2.84443068      1.89573364
H       6.04988499     -4.82847682      0.64638262
H       6.05773791     -4.83764096     -1.11647899
H       7.27551089     -3.88306453     -0.23454429
H       5.25552070     -2.87930913     -2.39331036
H       3.76179263     -1.48730821     -3.59312562
H       2.69430374     -0.34968460     -2.81743532
H       4.62921987      1.24914672     -2.49883460
H       4.38835352      0.82103600     -4.20025716
H       5.70490909      0.07786979     -3.27612736
H       3.22402440      1.17282642      0.30273692
H       1.20750372     -1.62790896     -0.87749922
H      -1.21799129     -1.63077219     -0.87069270
H      -3.23344931      1.16736945      0.31839368
H      -3.62999259     -1.47192421      3.08496401
H      -2.70770945     -0.23146145      2.28609806
H      -5.70950693     -0.08500409      2.93121147
H      -4.40728985      0.78523610      3.75887556
H      -4.81363244      1.18087267      2.08036391
H      -5.22677300     -2.85171540      1.95548005
H      -5.55838023     -5.13985384     -0.16525884
H      -6.86050656     -4.28285239     -1.02773451
H      -6.82559237     -4.27065171      0.73466686
H      -5.25877056     -2.92171356     -2.33339612
H      -2.71318500     -0.38836130     -2.79656139
H      -3.78727936     -1.53138151     -3.55498633
H      -4.41129086      0.77271326     -4.18216043
H      -5.72493618      0.04096229     -3.24466055
H      -4.64362546      1.21756968     -2.48389891
H       2.47558454      5.24732496      1.05135801
H       1.23270763      7.36024536      1.40230829
H      -1.25133504      7.35741779      1.40886806
H      -2.49129035      5.24178916      1.06439570
