59
Cc1ccc(S(=O)(=O)Oc2ccc(Nc3cc(S(=O)(=O)[O-])c(N)c4c3C(=O)c3ccccc3C4=O)cc2)cc1.[Na+]
C       9.73141875     -3.17577024      1.05394627
C       8.62549492     -2.23480773      0.67467145
C       8.79186611     -1.34844911     -0.39964389
C       7.75761443     -0.49049486     -0.77686485
C       6.54960467     -0.52486654     -0.07601988
S       5.20610273      0.53766586     -0.56377698
O       5.43910746      0.90305572     -1.95000182
O       5.10557607      1.54496354      0.47417796
O       3.91630009     -0.45959036     -0.50669973
C       2.63050242      0.00946680     -0.50041904
C       2.22402996      1.24147571     -1.00464620
C       0.87382703      1.60861632     -0.93714932
C      -0.09250201      0.75415703     -0.38381997
N      -1.42096590      1.21848438     -0.29633964
C      -2.54342152      0.73278709      0.41498460
C      -2.38758544      0.12718263      1.66189775
C      -3.48031734     -0.41001410      2.35866012
S      -3.06898190     -1.27585989      3.90473162
O      -1.91387007     -2.07767231      3.50448778
O      -4.27215018     -2.05058943      4.20605097
O      -2.78567188     -0.16666021      4.80793254
C      -4.77855429     -0.37355464      1.82803216
N      -5.90195458     -0.72619071      2.60586226
C      -4.95112104      0.27321885      0.58041092
C      -3.85559074      0.83879843     -0.10477080
C      -4.09307359      1.58186198     -1.37235942
O      -3.16421119      2.05319279     -2.02333572
C      -5.46728797      1.79890490     -1.85222854
C      -5.69731939      2.61912903     -2.96747718
C      -6.99763960      2.82379706     -3.43280530
C      -8.06965795      2.20786537     -2.79047825
C      -7.84035112      1.38878420     -1.68332441
C      -6.53482260      1.18874359     -1.21149581
C      -6.30041231      0.31295145     -0.05315620
O      -7.22793078     -0.39335982      0.33222147
C       0.33507897     -0.48431922      0.10307423
C       1.68161898     -0.85777082      0.03880622
C       6.36304777     -1.41146179      0.98780527
C       7.40124427     -2.26739154      1.35680213
Na      0.00000000      0.00000000      0.00000000
H       9.72595409     -4.04538806      0.39062396
H      10.70292389     -2.67691215      0.98215234
H       9.61945887     -3.52155012      2.08740969
H       9.73128666     -1.32346403     -0.94721649
H       7.89909612      0.19305591     -1.61168864
H       2.92402442      1.94047959     -1.45136057
H       0.57681616      2.58639893     -1.31127629
H      -1.69251167      1.76768380     -1.11908609
H      -1.40920729      0.07717877      2.13723647
H      -6.69984646     -1.03448494      2.04726253
H      -5.64422476     -1.40545200      3.34525464
H      -4.86418784      3.10070808     -3.47677627
H      -7.17146561      3.46229702     -4.29646167
H      -9.08445109      2.36119813     -3.15032198
H      -8.68090380      0.90640013     -1.18680404
H      -0.36881263     -1.19527251      0.52943511
H       1.97716577     -1.82865337      0.42970181
H       5.42240109     -1.44083450      1.53308238
H       7.24944281     -2.95966805      2.18308103
