94
CCCC[C@@H](CC)COC(=O)/C=C/c1ccc(OC)cc1.CCCC[C@H](CC)COC(=O)/C=C/c1ccc(OC)cc1
C      -6.48592967      2.44457209      0.09801794
C      -6.51825656      1.02581748     -0.44915843
C      -5.13936416      0.49026025     -0.84779769
C      -4.19215804      0.32026856      0.34585906
C      -2.82311362     -0.31858327      0.01408376
C      -2.99267111     -1.78362937     -0.44567080
C      -1.69725020     -2.58214065     -0.48718613
C      -2.04616703      0.54240144     -0.99929562
O      -0.65063341      0.20408094     -1.02099574
C       0.11353164      0.81241568     -0.08007518
O      -0.26122186      1.61076567      0.76174588
C       1.49989622      0.33067008     -0.24464295
C       2.46280362      0.77189203      0.57875682
C       3.86489738      0.33999446      0.51153238
C       4.59637202      0.23828917      1.69953915
C       5.94068847     -0.14540410      1.67539155
C       6.58179940     -0.42175711      0.46681962
O       7.89423073     -0.78561340      0.58450471
C       8.59616060     -1.06131898     -0.62080844
C       5.86430407     -0.30621815     -0.72284156
C       4.51635917      0.07710959     -0.70009604
C      -3.22859421      2.89513219      0.26900074
C      -4.44139994      1.99265755      0.10185547
C      -4.15083345      0.51664279      0.39045859
C      -3.18027530     -0.11347740     -0.61451277
C      -2.93125911     -1.62779840     -0.41971043
C      -4.18938666     -2.50446702     -0.57418179
C      -4.89979138     -2.33413974     -1.90901270
C      -2.25314401     -1.94356473      0.92788560
O      -1.06172736     -1.16305540      1.11063032
C       0.06665059     -1.68278282      0.56741294
O       0.16668501     -2.73121881     -0.04693567
C       1.17502289     -0.74709662      0.84710325
C       2.41734892     -1.04139142      0.43436614
C       3.58832358     -0.17934916      0.64680009
C       3.73963522      0.62595482      1.78081552
C       4.88848011      1.40612412      1.94851033
C       5.91012150      1.38791705      0.99760241
O       6.97483615      2.19563502      1.28538364
C       8.05764054      2.18406766      0.36307981
C       5.77349986      0.57734013     -0.12765016
C       4.62288501     -0.20391734     -0.29741724
H      -7.50622651      2.80517349      0.26473845
H      -5.95783109      2.49403528      1.05494773
H      -5.99618392      3.12678554     -0.60420867
H      -6.97870877      0.35989011      0.28982894
H      -7.16462968      1.01028870     -1.33489243
H      -5.28949441     -0.47589989     -1.34152096
H      -4.69507271      1.16219582     -1.59085741
H      -4.00519300      1.29981780      0.80249062
H      -4.68777317     -0.28564721      1.11524843
H      -2.25510470     -0.34399797      0.95374962
H      -3.67584574     -2.29390257      0.24485379
H      -3.45822490     -1.82410041     -1.43692730
H      -1.04987645     -2.25623959     -1.30545550
H      -1.14663549     -2.49575748      0.45433099
H      -1.91814101     -3.64175147     -0.65258505
H      -2.42550162      0.37690203     -2.01384270
H      -2.16539483      1.61324175     -0.79247657
H       1.68028743     -0.39024171     -1.03194087
H       2.22039262      1.47615169      1.37386018
H       4.12816927      0.44809313      2.65893252
H       6.49267470     -0.22682854      2.60871590
H       8.15403788     -1.91189879     -1.14945387
H       9.62251609     -1.33206929     -0.35518152
H       8.64144710     -0.17555973     -1.26271306
H       6.32134508     -0.50075259     -1.68738591
H       3.99069015      0.17819950     -1.64658512
H      -3.52358657      3.94394912      0.16007218
H      -2.77927435      2.77051417      1.25939377
H      -2.46542486      2.68624954     -0.48660008
H      -5.22412707      2.33202388      0.79130735
H      -4.84270925      2.10354577     -0.91228722
H      -3.75638611      0.42320852      1.40824204
H      -5.10537694     -0.02016706      0.36775368
H      -2.21598024      0.40553844     -0.56265651
H      -3.55092589      0.06273927     -1.63125432
H      -2.22890137     -1.91661079     -1.21386795
H      -3.89604120     -3.55776659     -0.47965266
H      -4.89726663     -2.31012847      0.23977370
H      -4.20760442     -2.47786029     -2.74436932
H      -5.70231469     -3.07274202     -2.00316153
H      -5.35399442     -1.34315152     -1.99888991
H      -2.02766537     -3.01381758      1.01667181
H      -2.92057633     -1.70521816      1.76283042
H       0.92724270      0.16502197      1.37479892
H       2.60171027     -1.96399584     -0.11504247
H       2.97907954      0.65205805      2.55656889
H       4.99038832      2.02904051      2.83399506
H       7.74252714      2.55065225     -0.61969147
H       8.50323141      1.18627066      0.28940976
H       8.82655751      2.86487681      0.74104478
H       6.54026869      0.52595197     -0.89345069
H       4.54243217     -0.82939507     -1.18461804
