88
CCOc1cc2c(cc1NC(=O)c1ccccc1)Oc1c(NC(C)=O)c3c(c(NC(C)=O)c1=N2)Oc1cc(NC(=O)c2ccccc2)c(OCC)cc1N=3
C       8.68593862     -1.13883926      3.03366904
C       7.23313809     -0.98448360      2.62031534
O       7.20919379     -0.41195076      1.31298835
C       5.97510466     -0.19281233      0.74293279
C       4.74937905     -0.48077869      1.35221556
C       3.54981789     -0.21770701      0.68674260
C       3.59026971      0.32590900     -0.59892779
C       4.80425541      0.62217059     -1.22059222
C       6.00211628      0.37513002     -0.55068656
N       7.27560309      0.65352529     -1.09651768
C       7.57304157      1.31370998     -2.27059199
O       6.77345027      1.84226838     -3.03359931
C       9.02809608      1.41552294     -2.58434644
C       9.48418933      2.54591817     -3.27503563
C      10.83788096      2.67980123     -3.58730656
C      11.73881114      1.68065890     -3.22073145
C      11.28862732      0.54312116     -2.55024904
C       9.93472985      0.40540768     -2.23451534
O       2.44522320      0.59461895     -1.30588644
C       1.23028127      0.25349633     -0.72895468
C       0.07177616      0.43114227     -1.38138010
N      -0.08731786      0.86380758     -2.69171678
C       0.76448040      0.68190309     -3.76262108
C       0.25802059      1.33577494     -5.02291685
O       1.79017812      0.01226426     -3.76479720
C      -1.23481147      0.19508433     -0.68684244
C      -1.22319103     -0.31170939      0.71413337
C      -0.06402177     -0.49438029      1.36489400
N       0.09230319     -0.93431073      2.67345376
C      -0.75745350     -0.73999115      3.74393519
C      -0.26039709     -1.41173075      4.99741678
O      -1.76985744     -0.05055854      3.74858070
C       1.24370930     -0.25459187      0.67179293
N       2.33926746     -0.49142141      1.34315158
O      -2.44033282     -0.65057088      1.29048582
C      -3.58452207     -0.37159780      0.58539134
C      -4.80117702     -0.65533376      1.20813693
C      -5.99708671     -0.39541763      0.53900834
N      -7.27469342     -0.65539400      1.08385264
C      -7.58445640     -1.28706019      2.27004955
O      -6.79211646     -1.80537783      3.04755707
C      -9.04334324     -1.36767194      2.57860465
C      -9.94685435     -0.37609612      2.17096472
C     -11.30425345     -0.49791003      2.47811825
C     -11.76196503     -1.59997042      3.19993017
C     -10.86492046     -2.57904135      3.62559118
C      -9.50760894     -2.46192917      3.32004371
C      -5.96515778      0.17001142     -0.75571156
O      -7.19738102      0.40396445     -1.32453219
C      -7.21734875      1.01158544     -2.61598994
C      -8.66906306      1.19831975     -3.01980486
C      -4.73763152      0.44350252     -1.36652078
C      -3.54055273      0.16997501     -0.70111935
N      -2.32907684      0.43496419     -1.35849076
H       9.22317339     -1.77688812      2.32422388
H       9.19175389     -0.16745755      3.03417914
H       8.76427836     -1.57858458      4.03155516
H       6.72648192     -0.32514383      3.33444299
H       6.75714740     -1.97168677      2.61259838
H       4.68911947     -0.90524472      2.34767366
H       4.78247460      1.03250183     -2.22560216
H       8.03939227      0.40443055     -0.47684641
H       8.78315174      3.32433043     -3.57004327
H      11.18650948      3.56074332     -4.12040077
H      12.79251272      1.78346450     -3.46921784
H      11.99216567     -0.24178795     -2.28348579
H       9.60109572     -0.50476834     -1.74389666
H      -1.06070637      1.06345849     -2.92487708
H      -0.34478633      0.61714724     -5.58363532
H       1.10829222      1.65752765     -5.63076393
H      -0.34856357      2.21683358     -4.79286971
H       1.06299343     -1.14377074      2.90767909
H      -1.09517159     -1.55108752      5.69075348
H       0.50358534     -0.78620499      5.46772055
H       0.16000505     -2.39557970      4.76663377
H      -4.78316538     -1.06646725      2.21257661
H      -8.03209803     -0.40646454      0.45635395
H      -9.60971332      0.50915789      1.64001183
H     -12.00428096      0.27213009      2.16294314
H     -12.81832253     -1.69093485      3.44186777
H     -11.21946936     -3.43208140      4.19887104
H      -8.81164502     -3.22741214      3.65773238
H      -6.72331671      0.36309211     -3.34813301
H      -6.72610357      1.99087184     -2.58475769
H      -9.18984786      0.23544636     -3.04229538
H      -8.74249138      1.66332651     -4.00665564
H      -9.19277112      1.82667406     -2.29202870
H      -4.67397012      0.86550758     -2.36284664
