67
O=C1c2ccccc2C(=O)c2c(Nc3nc(Nc4cccc5c4C(=O)c4ccccc4C5=O)nc(-c4ccccc4)n3)cccc21
O      -8.20335844      0.78487766     -0.99425196
C      -7.00617281      1.04780229     -1.01081566
C      -6.54019193      2.33702288     -1.54800126
C      -7.46993007      3.25910366     -2.04717793
C      -7.03576390      4.48347861     -2.55690821
C      -5.67594275      4.78957259     -2.56940347
C      -4.74934921      3.87143177     -2.07208872
C      -5.18291709      2.64064164     -1.55970083
C      -4.19486435      1.67829262     -1.03456251
O      -3.00403278      1.97944795     -1.04064965
C      -4.64697514      0.36394036     -0.50231972
C      -3.71112289     -0.58344253     -0.00654285
N      -2.33431232     -0.30270396     -0.02679576
C      -1.17176882     -0.99627630      0.29713246
N      -0.05062666     -0.29976728      0.15165850
C       1.08746326     -0.91191438      0.44721224
N       2.31371044     -0.26350371      0.33348324
C       2.73261175      1.02081287     -0.05762108
C       1.82151907      2.00516874     -0.47327588
C       2.24237711      3.27963292     -0.85968193
C       3.59310814      3.60082427     -0.83903418
C       4.52876532      2.64473013     -0.43079313
C       4.11143202      1.36470226     -0.04232668
C       5.14041950      0.37816429      0.38466701
O       4.81978313     -0.75487710      0.73356566
C       6.56696279      0.75589993      0.39245968
C       7.53089295     -0.17904638      0.79510525
C       8.88301662      0.16812348      0.80614370
C       9.27726068      1.44696920      0.41618528
C       8.31966046      2.37944507      0.01498428
C       6.96220339      2.03137509      0.00367483
C       5.95786529      3.02044134     -0.42120511
O       6.30830569      4.14424724     -0.76329443
N       1.14839312     -2.16645646      0.86835949
C      -0.01674478     -2.80064486      0.98026094
C       0.01127246     -4.20680838      1.43910826
C       1.21150487     -4.82317759      1.84705026
C       1.24314276     -6.15236548      2.28214324
C       0.07139921     -6.90104207      2.31943219
C      -1.12951333     -6.32251065      1.92163845
C      -1.15687313     -4.99282299      1.48717638
N      -1.20056866     -2.25553724      0.70752216
C      -4.21316915     -1.79667756      0.48869621
C      -5.58126317     -2.07712560      0.49664260
C      -6.48373012     -1.14341806      0.00446582
C      -6.01841113      0.07754061     -0.49502840
H      -8.53371278      3.02676731     -2.04015607
H      -7.75909025      5.19795992     -2.94380008
H      -5.33611748      5.74383527     -2.96603272
H      -3.68957527      4.12052379     -2.08605740
H      -2.08997307      0.63015746     -0.36611829
H       3.06580374     -0.89771591      0.61137047
H       0.75435091      1.80397811     -0.50831303
H       1.50874621      4.01782064     -1.17641972
H       3.91277279      4.59659686     -1.14184424
H       7.23344166     -1.18065543      1.10140602
H       9.62816359     -0.56001780      1.11912128
H      10.33048189      1.71906743      0.42403474
H       8.63467129      3.37660899     -0.28840204
H       2.14586700     -4.26305036      1.82943927
H       2.18543257     -6.59807162      2.59046526
H       0.09447271     -7.93380793      2.65684872
H      -2.04795110     -6.90332334      1.94657407
H      -2.11092504     -4.57085578      1.17805690
H      -3.54567771     -2.55273571      0.88985749
H      -5.93779694     -3.02681801      0.88953817
H      -7.54885216     -1.36983480      0.01314243
