71
CN(C)C1C(=O)C(C(=O)NCN2CCCC2)=C(O)C2(O)C(=O)C3=C(O)c4c(O)cccc4C(C)(O)C3CC12
C       0.00400298      1.19088855      2.96540406
N      -0.10423671      2.24051349      1.95101758
C       0.64396564      3.42787988      2.37285489
C       0.26465033      1.81384413      0.56790440
C       1.57791270      0.99512518      0.51080625
O       2.59542094      1.36388278      1.10791256
C       1.61436862     -0.27863446     -0.28813912
C       2.70543401     -1.29509776     -0.12560673
O       2.63291906     -2.38162458     -0.69980572
N       3.74282022     -0.93821055      0.68696666
C       4.95151090     -1.69861454      0.79319301
N       5.95914026     -1.01881763     -0.00020844
C       6.45042453      0.22690455      0.59061831
C       7.69379461      0.51103826     -0.23567462
C       8.22135693     -0.86303406     -0.63007263
C       7.15324063     -1.84791105     -0.17482549
C       0.64205575     -0.49793342     -1.20582123
O       0.58447020     -1.62809905     -2.00559404
C      -0.46401663      0.50323663     -1.43899000
O       0.11555772      1.55672218     -2.22769675
C      -1.67908240      0.00670566     -2.25696771
O      -1.61915212     -0.12359477     -3.48162746
C      -2.97672794     -0.10809938     -1.53468026
C      -3.71611713     -1.22087782     -1.63934987
O      -3.26551389     -2.32173399     -2.33144076
C      -5.06746716     -1.27596935     -1.02776389
C      -6.03071984     -2.23979235     -1.38741539
O      -5.71439570     -3.19469887     -2.32396345
C      -7.30511936     -2.25342892     -0.81766546
C      -7.64278937     -1.29712414      0.13306727
C      -6.70750308     -0.33812114      0.51553220
C      -5.41851198     -0.31155200     -0.05397554
C      -4.37780736      0.69964905      0.43320198
C      -3.69706401      0.10017737      1.67601648
O      -5.06664214      1.89216377      0.84430254
C      -3.39635368      1.09232477     -0.72267877
C      -2.17519194      1.92693535     -0.24743913
C      -0.91156651      1.05516944     -0.07648845
H       1.03965329      0.90486740      3.17565470
H      -0.54747498      0.29086126      2.67730178
H      -0.44322874      1.53424210      3.90549613
H       1.71534207      3.24100261      2.49056030
H       0.50945920      4.24582752      1.65610644
H       0.25960148      3.79673987      3.33072205
H       0.44642146      2.71394565     -0.03525153
H       3.76405464      0.01271531      1.04565859
H       4.77833546     -2.71463393      0.42166704
H       5.22515105     -1.76244103      1.85261620
H       6.72222964      0.09801077      1.64615736
H       5.73069926      1.04732470      0.51056557
H       8.43549085      1.08999365      0.32381762
H       7.43384397      1.07879251     -1.13785542
H       9.18034218     -1.07422350     -0.14473994
H       8.37473886     -0.91210145     -1.71423392
H       7.46414096     -2.31273644      0.76969087
H       6.99666273     -2.63943271     -0.91419139
H       1.33555772     -2.22928230     -1.79002939
H       0.13840443      1.19684709     -3.14189360
H      -4.03513071     -2.90588131     -2.48944396
H      -6.52097944     -3.69839461     -2.53434102
H      -8.04256590     -2.99874678     -1.09973171
H      -8.63255118     -1.29717332      0.58298403
H      -6.98447327      0.39621816      1.27003588
H      -3.02004573      0.81650960      2.15119846
H      -4.43726319     -0.15149202      2.44577395
H      -3.13825204     -0.81235150      1.44407154
H      -4.44761653      2.44441530      1.35015146
H      -3.95866557      1.75230662     -1.40129046
H      -2.41288978      2.46975901      0.67221751
H      -1.97134996      2.70564401     -0.99564522
H      -1.17470932      0.20267655      0.56357300
