56
CO[C@@]1(NC(=O)C(C(=O)O)c2ccc(O)cc2)C(=O)N2C(C(=O)O)=C(CSc3nnnn3C)CO[C@@H]21
C      -2.10734896      4.11790415      1.70235507
O      -1.67954949      2.83616399      2.14875943
C      -1.12013546      1.95725750      1.12883386
N      -2.20258603      1.30611958      0.32969283
C      -1.97481278      0.60008173     -0.83986866
O      -0.88191192      0.59153196     -1.39953510
C      -3.20356589     -0.09860632     -1.41426844
C      -2.84174974     -0.96228080     -2.60533396
O      -2.28521697     -2.04951614     -2.59431421
O      -3.21516266     -0.41161689     -3.78271010
C      -3.98700493     -0.89093370     -0.37082004
C      -3.36622727     -1.88912675      0.40027028
C      -4.08804395     -2.59772369      1.36302776
C      -5.43433317     -2.31140353      1.55600855
O      -6.17729078     -2.97842150      2.48418290
C      -6.06910019     -1.33293485      0.80131269
C      -5.35027646     -0.62505198     -0.16329784
C       0.10377675      2.57048808      0.32583980
O       0.25198594      3.42354589     -0.52291014
N       0.97633403      1.70766049      0.92481985
C       2.00093549      1.04876249      0.28972131
C       2.98158139      1.87512872     -0.48422673
O       3.66610813      1.52431665     -1.42955276
O       3.11376626      3.10729391      0.04498879
C       2.14046858     -0.29168093      0.42208496
C       3.24350034     -1.11200683     -0.20030544
S       4.75775550     -0.95882002      0.79196091
C       5.84110762     -1.79786717     -0.25286824
N       6.00263568     -3.09823374     -0.32251861
N       6.93506873     -3.30394191     -1.31282635
N       7.33280339     -2.15298425     -1.84203641
N       6.64918595     -1.20326490     -1.17626096
C       6.80576286      0.17996597     -1.52665410
C       1.12846730     -1.11258104      1.18757826
O      -0.12296591     -0.44456522      1.32067742
C      -0.01824703      0.94818432      1.66602314
H      -2.68749727      4.58447502      2.50316481
H      -2.74145074      4.02922583      0.81534360
H      -1.24117335      4.74926473      1.48656840
H      -3.08167388      1.15375701      0.80975765
H      -3.84906924      0.71114779     -1.78347504
H      -2.88990176     -1.04885341     -4.45466137
H      -2.31298453     -2.12839238      0.25139540
H      -3.58523481     -3.36520033      1.94349322
H      -5.62270948     -3.66447113      2.89118720
H      -7.12437235     -1.12720043      0.96003820
H      -5.86862914      0.13063427     -0.75044000
H       3.69181643      3.58624876     -0.58156284
H       2.96425755     -2.17094704     -0.24218466
H       3.42362545     -0.81752661     -1.23810880
H       6.64704333      0.80725111     -0.64743678
H       6.08029925      0.42028099     -2.30670319
H       7.82090410      0.34058205     -1.89895129
H       1.51059748     -1.35932715      2.18414493
H       0.91597323     -2.04949300      0.66321058
H       0.14446538      1.04770063      2.74739023
