85
CCC(=O)OC(OP(=O)(CCCCc1ccccc1)CC(=O)N1C[C@H](C2CCCCC2)C[C@H]1C(=O)O)C(C)C
C       1.80463867      5.16967403      3.79838411
C       1.13678187      4.68747388      2.52283655
C       2.12786537      4.08483750      1.55644799
O       3.34117165      4.06901194      1.70633885
O       1.45730241      3.59583802      0.47696412
C       2.25122536      2.85771601     -0.45481882
O       1.49736796      1.73588183     -0.91163251
P       1.33403395      0.47595771      0.09499507
O       1.68182866      0.81726905      1.51495180
C       2.37375798     -0.77408294     -0.66116989
C       3.83956401     -0.36917836     -0.78761174
C       4.71603792     -1.44129117     -1.43738796
C       4.93452498     -2.66765165     -0.54711755
C       5.86320671     -3.66172834     -1.20150571
C       7.25142015     -3.54677020     -1.04629618
C       8.11005356     -4.45418274     -1.66864784
C       7.58993704     -5.48094243     -2.45452554
C       6.21101090     -5.60085861     -2.61949128
C       5.35086257     -4.69431553     -1.99799081
C      -0.37543538      0.05587541     -0.16535930
C      -0.80102895     -1.21580430      0.50359337
O       0.01200815     -2.07890731      0.82750496
N      -2.15406687     -1.39772547      0.68168977
C      -3.22000224     -0.45888893      0.37170165
C      -4.51763072     -1.23414697      0.62498439
C      -5.71587508     -0.34011288      1.00397096
C      -6.96309214     -1.18281289      1.32941134
C      -8.18002908     -0.31448952      1.64173435
C      -8.47195683      0.67180002      0.51801170
C      -7.25046841      1.52434308      0.19838064
C      -6.03026027      0.66413721     -0.12087610
C      -4.09212310     -2.22528469      1.72197123
C      -2.66907284     -2.61200897      1.31564674
C      -2.69969062     -3.83310304      0.38757190
O      -3.04535271     -4.96091377      0.71054339
O      -2.36528787     -3.58204986     -0.89636149
C       2.58363837      3.71485312     -1.69610140
C       3.54547597      4.85733516     -1.37118796
C       1.32353194      4.27863372     -2.36385853
H       2.55629440      5.93584347      3.58279835
H       1.06300895      5.60166908      4.47749828
H       2.30589707      4.34495865      4.31564841
H       0.64249305      5.53036309      2.02798932
H       0.38809609      3.92785652      2.77261233
H       3.17961440      2.48035004     -0.00951729
H       2.29913857     -1.68374392     -0.06071594
H       1.97129215     -1.00823286     -1.65277421
H       4.23660642     -0.10275486      0.19871986
H       3.90082422      0.53703734     -1.40058461
H       5.68837257     -0.98930907     -1.67189321
H       4.27867815     -1.74378563     -2.39709807
H       5.35235438     -2.36303370      0.42104295
H       3.98202027     -3.16272030     -0.32408800
H       7.67077847     -2.74827649     -0.43850223
H       9.18530207     -4.35908130     -1.54087157
H       8.25891673     -6.18703777     -2.93884904
H       5.80481963     -6.40035492     -3.23352928
H       4.27733001     -4.79778937     -2.13752665
H      -0.57012425     -0.05107342     -1.23805794
H      -0.97191945      0.89447243      0.20685915
H      -3.13099971     -0.11495960     -0.66310099
H      -3.11665213      0.39854928      1.04557055
H      -4.76521921     -1.80761676     -0.27970750
H      -5.45274186      0.23246209      1.90427604
H      -6.77065737     -1.83111673      2.19169364
H      -7.19720605     -1.84003741      0.48206887
H      -8.00596867      0.23507155      2.57499506
H      -9.05463791     -0.95397090      1.80663084
H      -8.78076243      0.12285560     -0.37985583
H      -9.31012990      1.31818707      0.80199311
H      -7.02468564      2.17540399      1.05168373
H      -7.47088522      2.17832244     -0.65263830
H      -6.20666810      0.12385722     -1.05957645
H      -5.17383246      1.32604568     -0.29129688
H      -4.76791898     -3.08330922      1.79258065
H      -4.07392019     -1.72090464      2.69666342
H      -2.04482609     -2.86983286      2.17838414
H      -2.40861119     -4.46304474     -1.32276233
H       3.07283871      3.06118576     -2.43061267
H       3.08570114      5.59840393     -0.70982604
H       3.85087639      5.37555322     -2.28683102
H       4.45210353      4.47747968     -0.88865906
H       0.79182182      4.97121486     -1.70221646
H       1.58518111      4.82325178     -3.27771313
H       0.63213345      3.47820462     -2.64659830
