81
O=C1C=Cc2ccccc2/C1=N/Nc1ccc2ccccc2c1S(=O)(=O)[O-].O=C1C=Cc2ccccc2/C1=N/Nc1ccc2ccccc2c1S(=O)(=O)[O-].[Ba+2]
O      -0.91364095     -2.14232534      0.49078897
C      -1.96642738     -1.50681783      0.38796115
C      -3.08186164     -1.80414707      1.27106752
C      -4.21204757     -1.13098237      1.17114738
C      -4.39399791     -0.07183318      0.18462508
C      -5.60399224      0.58494039      0.14753426
C      -5.80992958      1.59246908     -0.76835484
C      -4.76654704      1.91165174     -1.63626166
C      -3.55389554      1.25625414     -1.60272372
C      -3.36748406      0.25261989     -0.68015139
C      -2.09092513     -0.46447592     -0.61188420
N      -1.12541988     -0.17961204     -1.41305421
N       0.12119863     -0.86487123     -1.37108897
C       1.19769258     -0.22944161     -0.73097739
C       1.03099373      1.06375665     -0.20810713
C       2.03435697      1.76843824      0.39145252
C       3.29240327      1.19402720      0.49778154
C       4.33171396      1.90559081      1.08471239
C       5.59388280      1.36662269      1.18121142
C       5.78552566      0.10508069      0.67651460
C       4.76980268     -0.62828368      0.08685781
C       3.51634118     -0.07114808      0.00403834
C       2.45870427     -0.78042161     -0.60849815
S       2.77652033     -2.39678016     -1.14250668
O       1.45044144     -3.16329248     -1.17958516
O       3.66243583     -3.17778013     -0.17558404
O       3.35998871     -2.48634364     -2.71085288
O       1.42102109     -2.01214921      2.22264905
C       2.30739283     -1.29972321      1.73637031
C       3.60357971     -1.11407886      2.42489390
C       4.52322874     -0.34575224      1.86924252
C       4.34613952      0.34808556      0.59430085
C       5.35647381      1.12843929      0.07301903
C       5.13567827      1.76113856     -1.14668611
C       3.96072513      1.63083943     -1.82925256
C       2.94693412      0.84916019     -1.30927458
C       3.16931430      0.22418490     -0.10274329
C       2.11116615     -0.62569586      0.48281291
N       1.02854458     -0.78879091     -0.14421043
N      -0.02658072     -1.56234139      0.24435222
C      -1.30285113     -1.01106336      0.43140296
C      -1.82681290     -0.84776361      1.69837135
C      -3.06114699     -0.30484337      1.91613223
C      -3.82608030      0.10301773      0.83234360
C      -5.06487039      0.66241339      1.04008259
C      -5.83175529      1.08797908     -0.02783836
C      -5.33765949      0.94129497     -1.30146679
C      -4.09582822      0.37913733     -1.51354548
C      -3.32699425     -0.04650378     -0.46596035
C      -2.06710943     -0.60464556     -0.65909574
S      -1.43863676     -0.78247140     -2.27275345
O      -0.22206668     -1.72310936     -2.19926715
O      -2.39812323     -1.28652791     -3.27477861
O      -0.79720871      0.67911067     -2.78702803
Ba      0.00000000      0.00000000      0.00000000
H      -2.96709039     -2.58539991      2.00829669
H      -5.04931348     -1.36602100      1.84433478
H      -6.42363109      0.33819003      0.82356825
H      -6.76637563      2.11457452     -0.80079300
H      -4.92706949      2.71238776     -2.36445964
H      -2.73900328      1.49514388     -2.26992641
H       0.11622221     -1.76280642     -1.83543603
H       0.03921840      1.51777255     -0.29170049
H       1.93253317      2.75678978      0.79988648
H       4.14736524      2.91434847      1.47846642
H       6.43289500      1.91155505      1.64289887
H       6.75489068     -0.35374605      0.72903088
H       4.95352551     -1.59568381     -0.32423219
H       3.70929023     -1.63025056      3.35706242
H       5.46044897     -0.23773284      2.40623165
H       6.31017345      1.27545790      0.54651526
H       5.91435314      2.37717017     -1.56569355
H       3.79605929      2.12242334     -2.77103927
H       2.02795455      0.75374727     -1.85250739
H       0.08568999     -2.60004292      0.41438012
H      -1.25857884     -1.15796561      2.57452781
H      -3.48486439     -0.17343967      2.89584646
H      -5.42479904      0.76095311      2.04331957
H      -6.81728952      1.53333090      0.12885689
H      -5.90279892      1.25726195     -2.18090784
H      -3.70211269      0.27974588     -2.52866473
