84
COC(=O)C1C2CC3c4[nH]c5cc(OC)ccc5c4CCN3CC2CC(OC(=O)c2cc(OC)c(OC)c(OC)c2)C1OC
C       2.33773812      1.27765920      4.58576696
O       1.82379212      1.27780684      3.25435000
C       0.89696598      0.30975801      3.01514469
O       0.52555849     -0.52588333      3.82994748
C       0.41704101      0.37223991      1.57575852
C       1.01497966     -0.82683115      0.79887804
C       2.54024865     -0.61692494      0.60528959
C       3.04098253     -1.15348007     -0.74336879
C       4.52859745     -1.03384652     -0.87539885
N       5.45053672     -1.65043846     -0.07320418
C       6.72472329     -1.31863962     -0.48201932
C       7.96803063     -1.69941990      0.03861592
C       9.12607613     -1.22107807     -0.58818509
O      10.29270730     -1.64749131     -0.00856957
C      11.50527522     -1.23840974     -0.62767033
C       9.02838700     -0.38587729     -1.70109913
C       7.77616973     -0.00998567     -2.21132722
C       6.60386129     -0.48123203     -1.59238050
C       5.21564689     -0.31437853     -1.82996821
C       4.48458096      0.43970302     -2.87865152
C       3.03327992      0.70003758     -2.41714867
N       2.34795160     -0.50484963     -1.88740860
C       0.92549276     -0.21451452     -1.64710128
C       0.32402971     -1.10913342     -0.55321260
C      -1.19749424     -1.00509585     -0.47244212
C      -1.69143642      0.27795487      0.18444998
O      -3.13210618      0.20240342      0.27325817
C      -3.81664404      0.69195768     -0.78924802
O      -3.33027752      1.15787645     -1.80719071
C      -5.28073571      0.60885358     -0.54387958
C      -6.12440882      1.36883256     -1.36821632
C      -7.50617811      1.33325516     -1.18368221
O      -8.41330646      2.04443007     -1.92548624
C      -7.90239537      3.01280113     -2.83169883
C      -8.03446688      0.50327261     -0.17881370
O      -9.39493719      0.49291562      0.04116984
C     -10.00820961     -0.51410192     -0.76157843
C      -7.20027439     -0.25757716      0.66007039
O      -7.82844339     -1.01578276      1.61359718
C      -7.01336921     -1.74955516      2.51753722
C      -5.81932534     -0.20375251      0.46595608
C      -1.11743267      0.41294497      1.60560687
O      -1.49418300      1.70304025      2.12792749
C      -2.56796836      1.63820247      3.05919282
H       2.83893128      0.32962981      4.80354745
H       1.53519249      1.46744821      5.30564828
H       3.07306635      2.08235277      4.66554698
H       0.76885024      1.31622319      1.13609131
H       0.88072382     -1.73137853      1.41019080
H       2.80032847      0.44762785      0.68169799
H       3.06719221     -1.10787276      1.43431084
H       2.81394394     -2.22777891     -0.79337227
H       5.24263128     -2.26089768      0.70422833
H       8.04152825     -2.35202978      0.90267187
H      12.33395372     -1.66949969     -0.05750279
H      11.61514866     -0.14923501     -0.59992390
H      11.57360929     -1.61845735     -1.65237636
H       9.90892582     -0.00153621     -2.20518133
H       7.71465341      0.63959099     -3.07921428
H       4.98054536      1.39340880     -3.08947150
H       4.47736398     -0.14754989     -3.80469743
H       2.47543688      1.09116676     -3.27745703
H       3.03760421      1.48868823     -1.65166875
H       0.38553730     -0.36184140     -2.59042085
H       0.78431935      0.83604208     -1.36089509
H       0.53166803     -2.15223756     -0.83512149
H      -1.63702882     -1.11084350     -1.47188999
H      -1.58306002     -1.86246662      0.09692538
H      -1.40322195      1.16378334     -0.39608917
H      -5.67390238      1.98092280     -2.14426238
H      -8.75374712      3.54258108     -3.27015909
H      -7.35274638      2.53359871     -3.64805439
H      -7.28067413      3.75240229     -2.31581492
H     -11.08310613     -0.49606286     -0.55780827
H      -9.63362778     -1.51155918     -0.50634333
H      -9.86490469     -0.31738327     -1.82952382
H      -6.35934020     -1.08470229      3.09162529
H      -6.43552140     -2.51671321      1.99152849
H      -7.67410269     -2.25858639      3.22568749
H      -5.14822387     -0.78946758      1.08463155
H      -1.52101515     -0.38220508      2.24809107
H      -2.81033106      2.65778429      3.37178344
H      -2.26747303      1.06636323      3.94324308
H      -3.45818779      1.19302446      2.60782278
