49
CC(C)(c1cc(Br)c(OCC2CO2)c(Br)c1)c1cc(Br)c(OCC2CO2)c(Br)c1
C       0.10885273     -3.43805667     -1.45208903
C       0.12286659     -2.63513535     -0.12470401
C       0.16167283     -3.69198664      1.01037079
C      -1.15231425     -1.78778609      0.10716524
C      -2.27421321     -1.84950636     -0.73614537
C      -3.40829140     -1.06218661     -0.49124263
Br     -4.89281209     -1.26189161     -1.66106938
C      -3.44071474     -0.17766805      0.59141508
O      -4.56090843      0.57401765      0.84010441
C      -4.47116291      1.85076668      0.19065244
C      -5.73588885      2.59395700      0.46555595
C      -6.94442262      2.43088038     -0.41602938
O      -6.08372209      3.57672139     -0.51761930
C      -2.35161695     -0.13628970      1.46508826
Br     -2.35443626      0.95099166      3.02183036
C      -1.22052416     -0.92329785      1.21999464
C       1.37461360     -1.72493944     -0.17486177
C       1.41679556     -0.64937411     -1.08680385
C       2.52613578      0.20048410     -1.16238303
Br      2.49577869      1.58487567     -2.46193918
C       3.61865213      0.00968742     -0.31283924
O       4.71706053      0.82667808     -0.40076344
C       4.59597795      1.94005353      0.49681389
C       5.79473696      2.80962081      0.31169535
C       5.81690653      3.89766010     -0.72753984
O       5.60166571      4.18525892      0.66354464
C       3.61270056     -1.07825537      0.56541928
Br      5.10553923     -1.47581611      1.67216442
C       2.50026556     -1.92854910      0.64075027
H      -0.01480850     -2.79203263     -2.32926099
H      -0.70216638     -4.17596821     -1.46961020
H       1.04764499     -3.98956336     -1.58906554
H       0.27081907     -3.23606943      2.00147901
H      -0.76193653     -4.28431063      1.02915844
H       0.99181442     -4.39632829      0.87868288
H      -2.28975601     -2.51843028     -1.59290337
H      -4.32209671      1.72666391     -0.88914980
H      -3.62883124      2.42667697      0.59086554
H      -5.87404387      2.83914850      1.50946354
H      -6.91313732      1.70456304     -1.21842358
H      -7.92259357      2.57770883      0.02423392
H      -0.37882413     -0.86491310      1.90915460
H       0.57180642     -0.47301620     -1.75138322
H       3.67540210      2.50210684      0.29627507
H       4.56837913      1.59304652      1.53613853
H       6.72229593      2.33182495      0.59501985
H       4.97343540      3.99789943     -1.39903718
H       6.77148182      4.17845080     -1.15433200
H       2.53592198     -2.75837197      1.34210787
