65
O=P(OCc1ccccc1)(OCc1ccccc1)OP(=O)(OCc1ccccc1)OCc1ccccc1
O       1.53720096     -2.65710091     -0.03365641
P       1.70880084     -1.19036366     -0.27489967
O       3.00232236     -0.80958836     -1.15569279
C       3.24133673     -1.59038882     -2.31316796
C       2.35220349     -1.15981030     -3.44843575
C       1.36807642     -2.02004187     -3.95338394
C       0.54333620     -1.61103756     -5.00270313
C       0.69130309     -0.33991917     -5.55449236
C       1.66036663      0.52764579     -5.05441892
C       2.48593158      0.11944544     -4.00674933
O       1.92215134     -0.29386850      1.04094374
C       2.20063298     -0.99390691      2.23370245
C       2.36633649      0.00200369      3.34810709
C       3.62625228      0.54082054      3.64204752
C       3.77468527      1.47135936      4.67257280
C       2.66501588      1.87742244      5.41172876
C       1.40439255      1.35944604      5.11780305
C       1.25475056      0.42818281      4.08838746
O       0.51640529     -0.45113638     -1.02267139
P      -0.99401059     -0.88845279     -0.79782889
O      -1.41338427     -2.15110649     -1.47981691
O      -1.16133511     -0.87345376      0.79661792
C      -2.42186832     -1.25538900      1.30622998
C      -2.23600397     -1.66753220      2.74059684
C      -2.80799034     -0.93141456      3.78611293
C      -2.62816225     -1.33213819      5.11285481
C      -1.87302575     -2.46669295      5.40632954
C      -1.29341005     -3.20240566      4.37451613
C      -1.47622299     -2.80696229      3.04876316
O      -1.82747596      0.40803066     -1.25553026
C      -1.84768377      0.66012518     -2.64878022
C      -2.20418351      2.10073610     -2.91500350
C      -3.01775435      2.43607603     -4.00729544
C      -3.30155619      3.77223071     -4.29814412
C      -2.76738714      4.78751303     -3.50874771
C      -1.95198897      4.46825601     -2.42457316
C      -1.66710849      3.13359138     -2.13268024
H       3.12396285     -2.65516622     -2.08456001
H       4.28719825     -1.45168800     -2.60557933
H       1.22959768     -3.01381156     -3.52971135
H      -0.21611108     -2.28789065     -5.38726945
H       0.04831540     -0.02509174     -6.37287284
H       1.77154535      1.52247258     -5.47928900
H       3.23428348      0.80660482     -3.61888208
H       1.38011629     -1.68122717      2.46550400
H       3.11039744     -1.59097547      2.11572190
H       4.49917855      0.23804886      3.06835109
H       4.75776568      1.87878098      4.89838107
H       2.78232827      2.60110886      6.21320507
H       0.53705835      1.67785796      5.68946945
H       0.26534819      0.03372340      3.86361368
H      -2.84357560     -2.09343233      0.73970651
H      -3.11137301     -0.40948620      1.22036320
H      -3.39805748     -0.04187075      3.57688298
H      -3.07831252     -0.75835232      5.91897812
H      -1.73995177     -2.78246966      6.43938219
H      -0.70397395     -4.08780092      4.60084022
H      -1.01892927     -3.38964621      2.25062987
H      -0.86905332      0.45569726     -3.08932175
H      -2.58495872     -0.01057317     -3.10321820
H      -3.42869465      1.65689082     -4.64699879
H      -3.93165407      4.02231566     -5.14841125
H      -2.98215280      5.82706052     -3.73838593
H      -1.53112541      5.25744712     -1.80740441
H      -1.02012106      2.90129863     -1.28776703
