87
C[NH+]1CC[C@@]23c4c5ccc(O)c4OC2[C@H](O)C=C[C@@H]3[C@@H]1C5.C[NH+]1CC[C@@]23c4c5ccc(O)c4OC2[C@H](O)C=C[C@@H]3[C@@H]1C5.O=S(=O)([O-])[O-]
C       3.86657657      0.26798384     -0.56762414
N       2.58003848     -0.50787324     -0.45341924
C       1.76182374     -0.42167761     -1.72446846
C       0.47420361     -1.23734070     -1.60039548
C      -0.28900565     -0.95432182     -0.28662387
C      -0.69717810      0.47852397     -0.28160587
C       0.03112942      1.54472438      0.20925528
C      -0.53928308      2.81279989      0.07671800
C      -1.81205076      2.96707822     -0.51792045
C      -2.53805425      1.85255681     -0.94937487
O      -3.78906954      1.96289340     -1.46673964
C      -1.96766709      0.60970811     -0.80437881
O      -2.55006220     -0.61372833     -1.05143048
C      -1.71282945     -1.54865628     -0.28307847
C      -2.33751312     -1.78394066      1.13007785
O      -3.44534291     -0.92604001      1.39414509
C      -1.40469884     -1.60436530      2.29337445
C      -0.08943675     -1.35738732      2.21112184
C       0.63050983     -1.26564965      0.89852031
C       1.78776695     -0.22112586      0.84910168
C       1.31222370      1.26343928      0.94382906
C      -3.71504996      1.28984551      0.27093220
N      -2.31626590      0.77899775      0.47756102
C      -2.19707161     -0.06086766      1.72264055
C      -0.74774142     -0.50056782      1.95197878
C       0.02336342     -0.80965164      0.63940201
C       0.80702168      0.40599171      0.25193843
C       0.45278715      1.38981378     -0.65425183
C       1.35462509      2.44056582     -0.83344055
C       2.57681055      2.46218831     -0.12323578
C       2.93249085      1.40683405      0.72448623
O       4.12752266      1.37849820      1.36959320
C       2.04548817      0.36612953      0.86987496
O       2.25688375     -0.84453528      1.49930544
C       1.25201626     -1.71024669      0.86859688
C       1.80968850     -2.40185764     -0.42596125
O       2.89898962     -1.68783439     -1.00289957
C       0.81893205     -2.53258263     -1.54907706
C      -0.40050319     -1.97559083     -1.58564257
C      -0.98291167     -1.19530697     -0.44370650
C      -1.72920843      0.12652366     -0.81957282
C      -0.79601857      1.18987949     -1.47021621
O      -0.21589519     -0.95676523     -1.10028631
S      -0.00006282      0.00014842      0.00029864
O       0.06908882     -0.72977815      1.27941955
O      -1.11733949      0.96107099      0.04185524
O       1.26420868      0.72532398     -0.22128713
H       3.64020433      1.30337989     -0.82940500
H       4.38905341      0.20895985      0.39036693
H       4.46896938     -0.20042703     -1.35072794
H       2.88167059     -1.48923178     -0.37870517
H       1.56864831      0.63607418     -1.93071263
H       2.38448053     -0.81986092     -2.53296518
H       0.72041729     -2.30674421     -1.64582015
H      -0.15003711     -1.03294738     -2.48013816
H      -0.02682373      3.69543912      0.45517322
H      -2.23499019      3.96565925     -0.59992820
H      -4.07592642      2.89031807     -1.42728151
H      -1.71454963     -2.50587155     -0.81949653
H      -2.72502905     -2.80871070      1.16346583
H      -3.80959307     -0.64522408      0.53183384
H      -1.86746146     -1.68637676      3.27663253
H       0.48110098     -1.27567026      3.13505600
H       1.07259320     -2.26333444      0.75603490
H       2.50320603     -0.42089017      1.65661719
H       2.09229163      1.95274471      0.60693064
H       1.12969442      1.48511313      2.00398557
H      -4.37097991      0.43552462      0.08433314
H      -4.01963991      1.82464246      1.17430325
H      -3.70471015      1.97171728     -0.58294340
H      -1.73963978      1.61183980      0.67518760
H      -2.86833546     -0.91900084      1.60439555
H      -2.55077798      0.54178768      2.56639452
H      -0.23825278      0.26769141      2.54915296
H      -0.78074761     -1.39720471      2.58472536
H       1.14613684      3.24032411     -1.54185596
H       3.25984705      3.29319518     -0.28220208
H       4.69370832      2.08893175      1.02793278
H       0.99659705     -2.50179322      1.58414141
H       2.18150732     -3.39286963     -0.14083137
H       3.51901094     -2.34118320     -1.37110868
H       1.15669573     -3.10543059     -2.41174753
H      -1.02299170     -2.14751017     -2.46234162
H      -1.71976643     -1.89235567     -0.01991907
H      -2.57744085     -0.09191698     -1.47885328
H      -0.50524753      0.85409739     -2.47308649
H      -1.32682214      2.14328707     -1.57918571
