89
CCOC(=O)CC(NC1CCC(CC2CCC(NC(CC(=O)OCC)C(=O)OCC)CC2)CC1)C(=O)OCC
C      11.44303459     -1.03508387     -0.50228343
C      10.32887314     -2.05034877     -0.34889912
O       9.33630507     -1.49333781      0.52208520
C       8.22919139     -2.26998680      0.67247334
O       8.06645473     -3.37866181      0.18589505
C       7.19714689     -1.55207731      1.49721007
C       6.21757688     -0.83794272      0.57202248
N       5.05651468     -0.35242915      1.37399835
C       3.94522118      0.12252902      0.53343140
C       3.09208990      1.10895459      1.34527398
C       1.89740257      1.60777698      0.53559833
C       1.01826406      0.44874328      0.03741619
C      -0.14276951      1.01412370     -0.80647810
C      -1.16767328     -0.01479727     -1.32890811
C      -2.22965895      0.70913521     -2.17909821
C      -3.33202092     -0.23648955     -2.66363303
C      -4.00346720     -1.00746417     -1.51024401
N      -4.76376100     -0.05115873     -0.68928488
C      -5.66232764     -0.65727638      0.32397019
C      -6.25254412      0.43214645      1.22552657
C      -7.27929844      1.27843911      0.51009654
O      -7.09861553      1.81537126     -0.57497625
O      -8.42059600      1.35969489      1.24785378
C      -9.48033974      2.13533313      0.66820050
C      -9.31777071      3.59695429      1.03997941
C      -6.80909625     -1.46599781     -0.30434301
O      -7.18089415     -1.39403039     -1.46622010
O      -7.37107376     -2.26955721      0.64839588
C      -8.46881541     -3.08243174      0.21204678
C      -9.77746255     -2.34491255      0.43543083
C      -2.91490127     -1.75018234     -0.71996253
C      -1.82581858     -0.81468929     -0.19216357
C       1.86436321     -0.57150188     -0.74012046
C       3.07665595     -1.05081847      0.06095592
C       6.93756397      0.33754361     -0.11366225
O       7.38892304      0.29449392     -1.25024892
O       6.99852868      1.42080605      0.71757453
C       7.56255149      2.61172489      0.15242187
C       6.47231247      3.41720584     -0.52822903
H      11.05169505     -0.09110758     -0.89379666
H      11.89657890     -0.81355814      0.46907172
H      12.21826247     -1.40609336     -1.17833795
H       9.88701331     -2.25974933     -1.33058675
H      10.72178304     -2.97781968      0.08398147
H       7.69194373     -0.86704204      2.19796351
H       6.69079328     -2.30932680      2.10836392
H       5.86889982     -1.52537236     -0.20733123
H       5.39303985      0.42153867      1.95273094
H       4.32865808      0.66431659     -0.34184837
H       2.73038733      0.63314975      2.26635375
H       3.69946287      1.96994298      1.64917004
H       2.25819674      2.19540991     -0.31668273
H       1.30156205      2.28820897      1.15571809
H       0.60401190     -0.04872592      0.92286121
H      -0.67519359      1.76889862     -0.21080667
H       0.27859711      1.55083762     -1.66685773
H      -0.65191799     -0.72202429     -1.99122492
H      -1.74752879      1.17274797     -3.04904457
H      -2.67678138      1.52766431     -1.60229101
H      -4.08072114      0.33229119     -3.23112327
H      -2.89281311     -0.95736503     -3.36523261
H      -4.68010560     -1.74388825     -1.95609438
H      -5.34841448      0.52360598     -1.31200957
H      -5.07159771     -1.33223960      0.95444980
H      -6.73218205     -0.04543040      2.09104961
H      -5.47426514      1.09251562      1.62365303
H      -9.52603036      1.99759438     -0.41764356
H     -10.41763990      1.75252152      1.08048966
H     -10.14367201      4.19597254      0.64355959
H      -8.37377193      3.99522691      0.65222600
H      -9.28607464      3.71621757      2.12750499
H      -8.35658268     -3.38633559     -0.83646491
H      -8.45184951     -3.99746021      0.81703110
H      -9.89386284     -2.07492512      1.49213200
H      -9.80924386     -1.40945832     -0.13711701
H     -10.62696563     -2.96907459      0.13540037
H      -3.34100588     -2.32674003      0.10525351
H      -2.44927573     -2.48913957     -1.38273828
H      -1.07574918     -1.42690581      0.32357635
H      -2.24799263     -0.12797650      0.55373605
H       2.20733128     -0.12610567     -1.68337131
H       1.26059626     -1.44790951     -1.00077481
H       2.72475243     -1.62879199      0.92541307
H       3.65897629     -1.73820820     -0.56327871
H       8.38272896      2.38240961     -0.53561908
H       7.98813372      3.19019614      0.97879531
H       6.04592562      2.86042519     -1.36887841
H       6.85967745      4.37021542     -0.89913116
H       5.65216132      3.61706623      0.16968384
