59
NS(=O)(=O)c1ccc(C(CNS(=O)(=O)c2ccc(C(F)(F)F)cc2)N2CCCCCC2)cc1
N      -3.34934199      5.71561627     -1.53617479
S      -4.31519369      4.54566956     -0.81485690
O      -4.57439256      5.02024929      0.52491084
O      -5.37281504      4.26608226     -1.75703336
C      -3.22044784      3.16010473     -0.74358314
C      -3.09699128      2.32205538     -1.85170476
C      -2.23723740      1.22304626     -1.79432340
C      -1.50495632      0.93573761     -0.62687016
C      -0.56971585     -0.27486322     -0.60708557
C       0.79286885      0.01514884      0.09841163
N       1.64233335     -1.19362795      0.06601410
S       2.90910444     -1.26906890     -1.02464601
O       3.29525616     -2.65905207     -1.12921876
O       2.55971105     -0.47975283     -2.18797969
C       4.18480709     -0.42778097     -0.11663724
C       4.58469704      0.85939973     -0.48906071
C       5.57383683      1.50981508      0.25252201
C       6.16591258      0.88129876      1.36313570
C       7.24220024      1.58153645      2.15825600
F       7.11286178      2.93888530      2.14873037
F       7.25483954      1.21957886      3.47237558
F       8.49081567      1.31872592      1.68337145
C       5.76868578     -0.42364826      1.70403469
C       4.78071844     -1.07797318      0.96759784
N      -1.17972061     -1.55518101     -0.11374673
C      -1.66710333     -1.47914692      1.26720811
C      -2.03632155     -2.82777294      1.89664720
C      -3.36633348     -3.37421337      1.39463065
C      -3.28480216     -4.13110110      0.07700557
C      -2.31528375     -3.59991191     -0.97325190
C      -2.18161969     -2.07915924     -1.05770544
C      -1.66459210      1.78365968      0.48364297
C      -2.51573825      2.89028686      0.42807171
H      -3.20240706      6.49072988     -0.89088575
H      -3.75636033      5.99640956     -2.42754906
H      -3.65917231      2.51886970     -2.76129134
H      -2.13911655      0.58694161     -2.67588018
H      -0.27440587     -0.45661624     -1.65246723
H       1.29519227      0.87244799     -0.36580099
H       0.65962858      0.28184617      1.15373944
H       1.13871844     -2.07871103      0.18867428
H       4.13423120      1.35948544     -1.34434068
H       5.88238387      2.51566234     -0.03592552
H       6.22706893     -0.93634061      2.55007999
H       4.47646999     -2.08696290      1.24167702
H      -0.88198192     -1.06032466      1.90633328
H      -2.52716635     -0.80341141      1.34327258
H      -1.22930214     -3.55712066      1.76446292
H      -2.12841521     -2.66723366      2.97723610
H      -4.09590114     -2.55757096      1.30789788
H      -3.77678333     -4.05763435      2.14950055
H      -3.02048618     -5.17562497      0.28170229
H      -4.29263421     -4.16354564     -0.35304810
H      -1.32656405     -4.04909395     -0.82006519
H      -2.65177338     -3.97185890     -1.94920011
H      -1.84532118     -1.87671860     -2.08229197
H      -3.15560388     -1.58415424     -0.94446705
H      -1.13455531      1.59276564      1.41185527
H      -2.62178484      3.53312152      1.29888748
