101
CCCCCCCCCCCC(=O)[O-].CCCCCCCCCCCC(=O)[O-].CCCC[Sn+2]CCCC
C      -5.07091671     -0.45466243      0.38063771
C      -3.96230456      0.47568110      0.82279337
C      -2.95950859      0.76459075     -0.27458287
C      -2.35538235     -0.56619696     -0.66800714
C      -1.33999661     -0.43411431     -1.76808492
C      -0.19453005      0.44522161     -1.44274157
C       0.61317287      0.00010731     -0.24237544
C       1.76056309      0.96065700      0.02006937
C       2.59193944      0.57026018      1.19422662
C       3.22211998     -0.79625156      1.04044222
C       4.12242489     -0.87604722     -0.16445249
C       5.24541217      0.07329322     -0.12529751
O       6.42463791     -0.20856484      0.19035558
O       5.01518447      1.42723861     -0.46615848
C       4.21772502     -2.19921931     -0.18856599
C       3.10867742     -1.21069255     -0.57041409
C       3.58257445      0.20082834     -0.46566800
C       2.51924301      1.19640907     -0.84240468
C       1.28687299      1.04521845      0.06899843
C       0.27385985      2.08466454     -0.32344976
C      -0.95862440      1.96947646      0.57629440
C      -1.60154697      0.58479652      0.41101495
C      -2.79409459      0.51056341      1.31987105
C      -3.53122382     -0.77035439      1.28521006
C      -4.12873146     -1.19504710     -0.00288058
C      -3.24729115     -1.46021643     -1.11791744
O      -2.19595532     -2.14281402     -0.95248292
O      -3.51778900     -0.98171785     -2.38366089
C       5.18999742      0.86896214      0.54101424
C       4.25927846      0.27222200     -0.47624379
C       2.85988350      0.22645157      0.10665568
C       1.90255259     -0.37294648     -0.90294528
Sn     -0.06416069     -0.40645717     -0.00740201
C      -2.08206601     -0.34463033      0.73453828
C      -2.98788950     -0.82329911     -0.35403717
C      -4.44446507     -0.82507157      0.05113527
C      -4.83526580      0.58766631      0.41102607
H      -6.03490312     -0.08913733      0.79349909
H      -5.11355869     -0.57079747     -0.71716004
H      -4.94100167     -1.48686422      0.80014182
H      -4.35568034      1.39956143      1.28200669
H      -3.39851535     -0.08321886      1.62933821
H      -3.49020606      1.26574686     -1.09069272
H      -2.20069933      1.43876861      0.18445035
H      -1.90973220     -1.00893451      0.24412404
H      -3.19497292     -1.22201346     -0.97442859
H      -0.95863119     -1.44621314     -2.00620654
H      -1.89317974     -0.09478085     -2.66665841
H       0.52098816      0.39801630     -2.31157601
H      -0.44421089      1.51905883     -1.34844188
H      -0.07853658     -0.01051121      0.63932961
H       1.00690113     -1.01669727     -0.34488499
H       1.28493877      1.95390740      0.26975016
H       2.33255058      1.10198864     -0.91391368
H       3.35103926      1.32996727      1.45515882
H       1.88233678      0.48866560      2.06763778
H       3.88151268     -0.92588336      1.94037015
H       2.46058778     -1.56683967      0.97573016
H       4.59101220     -1.90506100     -0.09679945
H       3.58914478     -0.84994107     -1.11261894
H       5.04975303     -2.12141005     -0.93678717
H       4.60599587     -1.95493258      0.80595385
H       3.83309397     -3.24011276     -0.27552207
H       2.80901685     -1.42000622     -1.60632001
H       2.29073373     -1.42957391      0.16718645
H       3.99173501      0.41351100      0.55573587
H       4.41776768      0.31866468     -1.19561961
H       2.14217726      0.88856211     -1.85959704
H       2.86040205      2.24721885     -0.83197648
H       1.54031932      1.25127152      1.13572171
H       0.94510729      0.00899778     -0.11871558
H      -0.09404635      1.91670660     -1.36171907
H       0.68317645      3.09119513     -0.24985710
H      -0.76150842      2.22705426      1.61846116
H      -1.73852911      2.68001631      0.18420613
H      -1.94241534      0.49743043     -0.63967183
H      -0.85911853     -0.20922453      0.62218263
H      -2.37099133      0.64243944      2.36356959
H      -3.43984886      1.40511469      1.19305089
H      -4.38592422     -0.68782235      2.01758354
H      -2.90530866     -1.60223669      1.68951754
H      -4.77348459     -2.10250728      0.24710826
H      -4.91179912     -0.45225157     -0.33843621
H       5.46791069      0.09398258      1.25806893
H       4.61462242      1.65158437      1.10689080
H       6.07248169      1.32397440      0.02822146
H       4.58419215     -0.72234228     -0.83332907
H       4.22858274      0.92199946     -1.39267885
H       2.50049289      1.24021516      0.36322253
H       2.89575913     -0.38113366      1.02999439
H       2.25361702     -1.38377648     -1.13062665
H       1.89037072      0.23145549     -1.81774509
H      -2.32822703      0.71413438      0.95532040
H      -2.12540297     -0.94741657      1.64524607
H      -2.81937152     -0.21320836     -1.26323546
H      -2.68267466     -1.88075929     -0.59449404
H      -4.68080586     -1.56811052      0.80782518
H      -5.03935877     -1.08763441     -0.86256408
H      -4.38351241      0.80121496      1.40390304
H      -5.91076997      0.77203355      0.36776224
H      -4.33577115      1.25088988     -0.33829958
