76
CCCCN(CCCC)c1ccc2c(c1)Oc1cc(C)c(Nc3ccccc3)cc1C21OC(=O)c2ccccc21
C      -5.42011812      4.35063196     -0.83418651
C      -5.56501179      2.86338511     -0.55400947
C      -4.80934291      2.02313395     -1.58816634
C      -4.99283450      0.51365331     -1.38374905
N      -4.42624603      0.04937794     -0.10593605
C      -5.38997706     -0.26189410      0.96226626
C      -5.46410650     -1.76657707      1.25088955
C      -5.95887496     -2.57837125      0.04857789
C      -6.15216873     -4.04368982      0.40744549
C      -3.05117800      0.00196048      0.10228634
C      -2.48282329     -0.00457203      1.38520016
C      -1.09457638     -0.03193534      1.59494139
C      -0.20308466     -0.06765572      0.51501785
C      -0.74580702     -0.07203168     -0.76543336
C      -2.13655121     -0.04020125     -0.96195137
O       0.01131406     -0.11233989     -1.91158522
C       1.36718932      0.06374649     -1.80909199
C       2.05353519      0.21651375     -3.01535030
C       3.44478091      0.40726231     -3.03982434
C       4.12834945      0.58371506     -4.37041753
C       4.16541087      0.41777439     -1.82936911
N       5.55958534      0.62561490     -1.83411212
C       6.44334099      1.04266621     -0.82166721
C       6.07586839      1.95465166      0.17468440
C       6.96361474      2.30421998      1.19579983
C       8.23599904      1.74112046      1.23615226
C       8.62063660      0.83345498      0.25322655
C       7.72908340      0.48586911     -0.76506928
C       3.45043209      0.26728997     -0.62942485
C       2.05288500      0.08554079     -0.59950797
C       1.29881827     -0.12414042      0.69837132
O       1.67917016      0.94277554      1.61401293
C       2.29702654      0.47197835      2.73542674
O       2.72509466      1.13465514      3.66012640
C       2.34461063     -0.97819866      2.61646750
C       2.88441783     -1.89250547      3.50329114
C       2.80933526     -3.24279569      3.16173142
C       2.20239064     -3.64052631      1.95778917
C       1.66889060     -2.69345877      1.07824515
C       1.75024325     -1.35231589      1.42677688
H      -4.36770791      4.65175514     -0.81198480
H      -5.95448250      4.93253993     -0.07765852
H      -5.83318004      4.60852888     -1.81471606
H      -5.18236512      2.65889041      0.45216830
H      -6.62859292      2.59732849     -0.56045187
H      -5.17236666      2.27827790     -2.59207471
H      -3.74539291      2.28998809     -1.56441546
H      -6.06357438      0.27682874     -1.43448171
H      -4.55856042     -0.03631762     -2.22648974
H      -5.15966274      0.29435446      1.87622908
H      -6.39365133      0.08243826      0.68198674
H      -6.14812823     -1.92145927      2.09597775
H      -4.48340129     -2.14672653      1.56416188
H      -5.23649047     -2.50996623     -0.77285092
H      -6.90788209     -2.16912551     -0.31643609
H      -6.44193348     -4.61531067     -0.47883521
H      -5.22882262     -4.47619470      0.80299367
H      -6.93753664     -4.16019784      1.16050289
H      -3.10720731      0.03706997      2.27237532
H      -0.72546266     -0.01636163      2.61896692
H      -2.48364171     -0.06002563     -1.99056740
H       1.49137996      0.19651730     -3.94706788
H       4.75485159     -0.28770431     -4.58891839
H       4.74884565      1.48519954     -4.36706476
H       3.40342658      0.69281341     -5.18396339
H       6.02536710      0.25210635     -2.65069982
H       5.09604346      2.42533379      0.15352772
H       6.65620792      3.01589406      1.95779395
H       8.92542235      2.01125996      2.03053098
H       9.61106767      0.38722088      0.28307341
H       8.04413159     -0.24045885     -1.50982631
H       4.00027017      0.25194198      0.30876994
H       3.35154620     -1.56590456      4.42719267
H       3.22378368     -3.99389929      3.82928384
H       2.15180285     -4.69838992      1.70608523
H       1.20657459     -3.00602749      0.14542625
