92
Cc1cc(CCC(=O)OCCOCCOCCOC(=O)CCc2cc(C)c(O)c(C(C)(C)C)c2)cc(C(C)(C)C)c1O
C      11.39697702      0.18381010      1.88657754
C      10.11314980      0.05824666      1.11326254
C       9.05153169     -0.65260677      1.68632991
C       7.84299642     -0.80312161      1.00521877
C       6.69703108     -1.55828481      1.63403330
C       5.68672083     -0.60790702      2.27036849
C       4.51045842     -1.36204105      2.83332738
O       4.40620743     -2.57893460      2.89125383
O       3.56710132     -0.47644105      3.26026174
C       2.37184825     -1.05789572      3.81099073
C       1.42183075     -1.56091687      2.72022775
O       0.70929298     -0.48869465      2.09042285
C       1.43839993      0.14024302      1.03166020
C       0.55228793      1.18057833      0.33848676
O      -0.35085415      0.61197913     -0.61712669
C      -1.39640537     -0.15461222     -0.01778840
C      -2.49336822     -0.39144291     -1.05479629
O      -3.48675486     -1.31720864     -0.58748567
C      -4.39646111     -0.81005922      0.29049324
O      -4.39657912      0.33256779      0.72466937
C      -5.38829338     -1.87216984      0.68963145
C      -6.28941265     -2.28230584     -0.47082378
C      -7.27043147     -1.20228106     -0.86356652
C      -7.06248085     -0.43528101     -2.01049809
C      -7.96056129      0.57737156     -2.36564953
C      -7.69208663      1.36908848     -3.61476574
C      -9.06934913      0.82783905     -1.53188134
O      -9.94000849      1.83807229     -1.84767104
C      -9.32326771      0.06920189     -0.36765850
C     -10.54373898      0.33296874      0.54550731
C     -10.47808779      1.76086972      1.13316325
C     -10.62889944     -0.62788601      1.76081868
C     -11.86096287      0.14457026     -0.24036613
C      -8.39465122     -0.94693988     -0.06244202
C       7.69367772     -0.22109498     -0.26370469
C       8.72702928      0.51094360     -0.88296008
C       8.52394364      1.14517230     -2.28003558
C       8.70004683      2.67892967     -2.20907467
C       9.52238691      0.54590615     -3.29607129
C       7.10961300      0.90649837     -2.87234527
C       9.93860872      0.62872198     -0.16403433
O      10.96683591      1.32460121     -0.74473195
H      11.33263882     -0.30391510      2.86435055
H      12.21846638     -0.28771122      1.33831659
H      11.63172941      1.23808897      2.06225599
H       9.16793865     -1.09643313      2.67336341
H       7.08069166     -2.26199630      2.38415642
H       6.21305831     -2.17846537      0.86800932
H       6.15522372     -0.03866108      3.08120516
H       5.31028078      0.09674819      1.52036118
H       2.64004860     -1.86750193      4.50058415
H       1.88586282     -0.27087698      4.39735340
H       0.65796962     -2.18724236      3.19208420
H       1.93017314     -2.17084659      1.96480180
H       1.76748375     -0.61651263      0.30988562
H       2.30641981      0.65263579      1.45507725
H      -0.00992093      1.77877784      1.06352067
H       1.19478506      1.86152991     -0.22929825
H      -1.80445161      0.36727836      0.85453773
H      -1.00287782     -1.12062649      0.31639819
H      -2.95675814      0.55415554     -1.36701147
H      -2.05422724     -0.82258902     -1.96211649
H      -4.82273818     -2.73675793      1.05742222
H      -5.97151247     -1.49807974      1.53846031
H      -6.85785738     -3.17823683     -0.18870154
H      -5.69102388     -2.57413887     -1.34184113
H      -6.18943723     -0.62648040     -2.63237178
H      -6.89057752      0.92110580     -4.21351227
H      -8.58559117      1.39944066     -4.24823262
H      -7.39247648      2.39076176     -3.35605776
H      -9.54595730      2.40403668     -2.52975028
H     -10.56743858      2.54062377      0.37126971
H      -9.53094216      1.92488684      1.66215049
H     -11.29198002      1.93034565      1.84767830
H     -11.50644940     -0.40622685      2.38050034
H     -10.71721431     -1.67440653      1.44386451
H      -9.75133716     -0.53547360      2.41213260
H     -12.73161512      0.24625830      0.41825828
H     -11.90483509     -0.85225306     -0.69462593
H     -11.98968479      0.87661219     -1.04205129
H      -8.52236597     -1.56621784      0.82197747
H       6.73659332     -0.35681451     -0.76052832
H       9.71899030      2.98044446     -1.94790831
H       8.47545573      3.14796743     -3.17522389
H       8.02612238      3.11782229     -1.46244371
H      10.56392501      0.78238759     -3.06092132
H       9.43500959     -0.54651000     -3.33524961
H       9.33554257      0.93002717     -4.30619876
H       6.32663836      1.33368309     -2.23370924
H       6.90163539     -0.16158689     -3.00808513
H       7.00814305      1.37782120     -3.85725838
H      11.74312260      1.32306722     -0.16735314
