66
CCOP(=O)(OCC)SCCSCC.CCOP(=S)(OCC)OCCSCC
C      -3.68361134      1.67284158      1.58175090
C      -2.77581582      0.46978012      1.73120466
O      -2.03914233      0.31518800      0.52788046
P      -1.15277040     -1.02934803      0.37943307
O      -0.37361575     -1.32030676      1.62963447
O      -2.27416340     -2.15717950      0.09840166
C      -3.19208049     -2.00109703     -0.96750338
C      -2.83063330     -2.93642214     -2.10560432
S       0.13812257     -0.82819131     -1.24359812
C       1.33802906      0.39658066     -0.64485253
C       2.52994326      0.47960626     -1.59161415
S       3.72860969      1.76596756     -1.09121005
C       4.37477687      1.01678232      0.43724930
C       5.51654471      1.85919828      0.97646610
C      -2.43400418     -2.90505502     -0.47234241
C      -1.25083223     -1.96778806     -0.32920484
O      -1.71018308     -0.69738267      0.10047953
P      -1.59945421      0.56381259     -0.90309775
S      -2.55738500      0.45552349     -2.57930240
O      -2.01311477      1.78835582      0.07361163
C      -3.33680432      1.81451517      0.58013272
C      -3.39063119      2.78925158      1.73852543
O      -0.00329954      0.77255020     -1.03420212
C       0.74703910      1.13119597      0.11651023
C       2.20700805      0.72238868     -0.05760820
S       2.39618682     -1.09483935      0.02680048
C       4.14971677     -1.24351111     -0.43848154
C       5.07600294     -0.77294280      0.66852251
H      -4.27400421      1.84387312      2.48803626
H      -3.09537900      2.57299324      1.36601625
H      -4.36561526      1.52881582      0.73347620
H      -2.08054856      0.61917901      2.56426816
H      -3.37487926     -0.42704450      1.92166354
H      -3.22726890     -0.96567210     -1.31986810
H      -4.18219727     -2.26244924     -0.58251779
H      -2.56192935     -3.93438514     -1.74033543
H      -3.65989944     -3.01917975     -2.81506987
H      -1.96356369     -2.54659728     -2.65036384
H       1.65565827      0.08919734      0.35569994
H       0.82889608      1.36263172     -0.56498849
H       2.19257735      0.74101971     -2.60167624
H       3.05721067     -0.48028215     -1.66087528
H       3.57945263      0.96481585      1.18599306
H       4.73155438      0.00342785      0.23068356
H       5.19040127      2.87849549      1.20348989
H       5.89724949      1.41739653      1.90279914
H       6.34809148      1.91036445      0.26593098
H      -2.10337503     -3.91008169     -0.75038201
H      -2.99712703     -2.95690232      0.46468896
H      -3.13039744     -2.54241628     -1.23380202
H      -0.69152574     -1.89669548     -1.26915094
H      -0.57166273     -2.35296150      0.43685256
H      -4.01937529      2.14132148     -0.20780588
H      -3.63530596      0.81754188      0.91517164
H      -4.39848529      2.83791426      2.16009818
H      -2.68883006      2.49816631      2.52862936
H      -3.09855856      3.79285477      1.41161654
H       0.70102510      2.22044351      0.20431853
H       0.31572056      0.70338485      1.02566760
H       2.56903581      1.06767325     -1.03333578
H       2.80802960      1.17567243      0.73621064
H       4.34602308     -2.30008280     -0.64747153
H       4.33307182     -0.68938198     -1.36315061
H       6.11881486     -0.93591941      0.37540609
H       4.96080991      0.29661245      0.86866785
H       4.90186724     -1.32321822      1.59734217
