68
C(=C/CSc1nnc(-c2ccccc2)c(-c2ccccc2)n1)\CSc1nnc(-c2ccccc2)c(-c2ccccc2)n1
C       0.55115548      0.39901628     -0.24812432
C       0.15372270      1.62790032      0.12701531
C       0.29524810      2.85576587     -0.72224679
S       1.51081201      3.98568393      0.00876122
C       2.96241156      3.02476828     -0.31065035
N       3.36992007      2.88745358     -1.58777336
N       4.44924259      2.10002301     -1.86264701
C       5.08996260      1.46762165     -0.85091548
C       6.20486173      0.60449915     -1.27160020
C       6.29735928     -0.74014917     -0.87196325
C       7.37553343     -1.53780230     -1.26816609
C       8.37382434     -1.00978791     -2.08285652
C       8.29176914      0.31175668     -2.51091388
C       7.21459530      1.10844452     -2.11212042
C       4.64246408      1.66440845      0.45790708
C       5.26006596      1.06718023      1.65697820
C       6.63147829      1.20201144      1.93549917
C       7.19841843      0.60744563      3.06713354
C       6.40218397     -0.12273962      3.94664490
C       5.03748766     -0.24933628      3.70396514
C       4.47185102      0.34522795      2.57260265
N       3.56346029      2.44270881      0.73693760
C       0.44797856     -0.81588619      0.62435773
S      -0.61509158     -2.06591963     -0.14694539
C      -2.22315608     -1.39537521      0.19020762
N      -2.38421421     -0.48625750      1.17138415
N      -3.62739844      0.01318100      1.43256115
C      -4.68878301     -0.42935469      0.71850411
C      -5.97186101      0.20175114      1.06724940
C      -6.36867008      0.30583720      2.41412962
C      -7.58272129      0.90017212      2.76810583
C      -8.42265926      1.40883141      1.78107583
C      -8.04549577      1.33137695      0.44281941
C      -6.82909909      0.73948590      0.08989949
C      -4.47906002     -1.40503614     -0.25836764
C      -5.54460382     -2.04972167     -1.04951975
C      -6.66065700     -2.64920530     -0.43893480
C      -7.65958016     -3.26045209     -1.20270985
C      -7.55597532     -3.29409748     -2.59118361
C      -6.45188867     -2.72177166     -3.21723990
C      -5.45374291     -2.11053850     -2.45241083
N      -3.23631513     -1.88119018     -0.54196968
H       1.01720186      0.25772731     -1.22245678
H      -0.30677346      1.77104962      1.10428006
H      -0.67008012      3.37016587     -0.76345712
H       0.57284025      2.61373947     -1.75345872
H       5.52726088     -1.18553358     -0.24505091
H       7.43288662     -2.57265321     -0.94090830
H       9.21180480     -1.63096917     -2.39049322
H       9.06374540      0.72485785     -3.15685415
H       7.16653109      2.13875782     -2.46217604
H       7.27680505      1.77574321      1.27241442
H       8.26197263      0.71677543      3.26171165
H       6.84487263     -0.58422373      4.82644477
H       4.41052966     -0.80626994      4.39670851
H       3.40067978      0.24493085      2.40414683
H       1.44900617     -1.25074478      0.72156398
H       0.11485107     -0.58152011      1.64073476
H      -5.72324608     -0.07972122      3.20366657
H      -7.86801983      0.96918007      3.81516442
H      -9.36707109      1.87205775      2.05426843
H      -8.69723407      1.73519515     -0.32929438
H      -6.55666573      0.70806027     -0.96386602
H      -6.76124920     -2.65497411      0.64534761
H      -8.51432425     -3.71664745     -0.71033616
H      -8.33024098     -3.77556039     -3.18351240
H      -6.36073516     -2.75669231     -4.30074154
H      -4.59018166     -1.68066063     -2.95852850
