81
CCc1cc(N/N=C2/C(=O)C=Cc3ccccc32)c(S(=O)(=O)[O-])cc1Cl.CCc1cc(N/N=C2/C(=O)C=Cc3ccccc32)c(S(=O)(=O)[O-])cc1Cl.[Ba+2]
C      -4.21441625      2.42766484     -0.67893765
C      -3.05192041      1.76662496     -1.33448102
C      -2.72166768      0.43853329     -0.77956579
C      -1.61807163      0.35870150      0.05253437
C      -1.19576157     -0.80769605      0.63623526
N      -0.02611624     -0.81470188      1.50145742
N       0.60012566      0.34308443      1.71468316
C       1.64649679      0.83124990      1.25977105
C       2.09396818      2.17995505      1.70482333
O       1.38241622      2.79351683      2.54436571
C       3.31198228      2.70883875      1.15362913
C       4.04009817      2.05217369      0.27853623
C       3.60982281      0.73509115     -0.16083350
C       4.41182604      0.07310171     -1.09031362
C       4.03231861     -1.16559854     -1.52089412
C       2.89455612     -1.76650678     -1.06598105
C       2.07362493     -1.11957131     -0.13158478
C       2.44537789      0.11482013      0.30184711
C      -1.90960276     -1.96447841      0.38024838
S      -1.43425016     -3.48738074      1.09183676
O      -0.13223268     -3.99817856      0.60647164
O      -2.47210152     -4.52974561      0.72461265
O      -1.46958785     -3.39599201      2.78571387
C      -3.01993352     -1.88935127     -0.45581957
C      -3.42168606     -0.70160748     -1.02942041
Cl     -4.81811527     -0.59391957     -2.08359900
C       5.66678934      0.37831362      1.28118001
C       4.91271069      1.24407177      0.30531655
C       3.68947317      0.57951728     -0.19470174
C       2.43648228      0.90007783      0.22588202
C       1.27195887      0.28612455     -0.24933881
N       0.03829624      0.74516332      0.34948449
N      -0.64445381     -0.09633982      1.11043680
C      -1.83940064     -0.42505193      1.21592897
C      -2.27402794     -1.43381540      2.22225627
O      -1.38513533     -1.96007748      2.91745999
C      -3.67707139     -1.72296670      2.31597918
C      -4.57941379     -1.13786471      1.55556371
C      -4.14393968     -0.15689846      0.57492987
C      -5.12653717      0.42662508     -0.21295686
C      -4.77680475      1.34410066     -1.16112288
C      -3.47150470      1.70462867     -1.35635256
C      -2.46371020      1.12801669     -0.57052642
C      -2.81660189      0.22141935      0.37256279
C       1.38404568     -0.68039279     -1.17845438
S       0.03482088     -1.52858830     -1.89970613
O       0.59696784     -2.48768321     -2.95457422
O      -0.68841819     -2.41080356     -0.94066062
O      -0.95854352     -0.49488108     -2.75386523
C       2.67571972     -1.01366168     -1.61312663
C       3.80512732     -0.41268077     -1.14643145
Cl      5.39651910     -0.89098650     -1.74453758
Ba      0.00000000      0.00000000      0.00000000
H      -4.06044606      3.52734086     -0.70382939
H      -5.18689346      2.24091978     -1.17311598
H      -4.26272301      2.16445685      0.41926520
H      -2.17535997      2.45808974     -1.31276501
H      -3.28178240      1.61637238     -2.41738290
H      -1.03540838      1.26502303      0.27007709
H       0.17380236     -1.77211288      1.92469640
H       3.62123680      3.70458649      1.49775069
H       4.93418205      2.49848979     -0.09379838
H       5.31059191      0.55254267     -1.44754319
H       4.66951006     -1.65692966     -2.24037903
H       2.61177643     -2.73265776     -1.41016729
H       1.23599702     -1.67005469      0.14218151
H      -3.59163345     -2.78469464     -0.66757520
H       6.38870345      1.03615805      1.83085333
H       4.99245058     -0.07460721      2.02675440
H       6.26949868     -0.36674253      0.73838176
H       4.70378543      2.20595445      0.79884577
H       5.58400731      1.47974745     -0.56051351
H       2.33962501      1.68551946      0.97857860
H      -0.08599822      1.78144151      0.15162944
H      -3.97434267     -2.47085936      3.06525450
H      -5.61497258     -1.37831225      1.65518823
H      -6.15482859      0.14670669     -0.06339259
H      -5.55403865      1.80609251     -1.78032823
H      -3.25840909      2.42701168     -2.11443296
H      -1.50572166      1.41447753     -0.82893535
H       2.80689285     -1.79795440     -2.36850857
