92
NC[C@H]1O[C@H](O[C@@H]2[C@@H](N)C[C@@H](N)[C@H](O)[C@H]2OC2O[C@H](CO)[C@@H](O[C@@H]3O[C@H](CN)[C@H](O)[C@@H](O)[C@@H]3N)[C@H]2O)[C@H](N)[C@@H](O)[C@@H]1OS(=O)(=O)O
N      -3.37546198     -2.49346615     -3.06540473
C      -4.18131674     -1.25928593     -3.03835267
C      -3.93202749     -0.47169738     -1.73881918
O      -2.53944441     -0.13328818     -1.69845241
C      -2.14792964      0.51107915     -0.48581879
O      -2.36435965     -0.33721720      0.64753955
C      -1.44198768     -1.45366975      0.68418164
C      -2.26980620     -2.72567135      1.01316829
N      -2.00868259     -3.80899086      0.04767792
C      -2.01575817     -3.22480057      2.44154075
C      -0.53311923     -3.50067122      2.75161416
N      -0.14899473     -4.86047676      2.33523176
C       0.40762312     -2.44739101      2.11214625
O       1.44522880     -2.12045162      3.05404934
C      -0.34100407     -1.15810612      1.72700895
O       0.60961458     -0.23218030      1.14913525
C       0.62395525      1.02886289      1.81753670
O       1.37604556      0.92344516      3.03727291
C       2.60580430      1.67647636      2.88432016
C       2.51263722      2.91982044      3.78064390
O       3.63428095      3.77794239      3.59002156
C       2.76804862      2.01158496      1.39534802
O       3.48891824      0.93079288      0.78070194
C       3.89989456      1.20282293     -0.56693403
O       3.22889908      0.24816050     -1.38991039
C       3.71584366      0.23898319     -2.74351763
C       2.78649644     -0.63513459     -3.60491411
N       1.40786502     -0.11528642     -3.67404756
C       5.18648212     -0.24389644     -2.78788216
O       5.34854672     -1.56613838     -3.32252557
C       5.82671091     -0.19979392     -1.39550498
O       7.25731325     -0.29283016     -1.53826256
C       5.45549849      1.10173972     -0.67136445
N       6.20636045      1.18203051      0.61156450
C       1.31227302      2.10019567      0.95867600
O       1.10044769      1.97646477     -0.43981339
C      -2.92548935      1.84315593     -0.29852631
N      -2.57126205      2.55537098      0.95852499
C      -4.44469776      1.56247168     -0.37331273
O      -5.18600199      2.80877676     -0.33735238
C      -4.80040790      0.79447633     -1.66094579
O      -6.16695448      0.40916131     -1.59848739
S      -7.34907017      1.37476763     -2.16287202
O      -7.72286238      0.88444184     -3.47245129
O      -8.31585383      1.51095915     -1.09716565
O      -6.67326606      2.82139652     -2.35510134
H      -2.40000641     -2.21436194     -2.92704579
H      -3.42137129     -2.89229238     -4.00681709
H      -5.24094245     -1.51970280     -3.13799199
H      -3.89265988     -0.64251160     -3.90053194
H      -4.17610135     -1.13486150     -0.89980749
H      -1.08574706      0.74786521     -0.57287273
H      -0.97787173     -1.56332958     -0.30444491
H      -3.33914110     -2.48567440      0.93146529
H      -2.28050324     -3.47939806     -0.88832494
H      -2.63602213     -4.58464740      0.24685200
H      -2.63853956     -4.10360974      2.65524464
H      -2.37862753     -2.45782559      3.13900276
H      -0.40829319     -3.48517493      3.84348132
H      -0.33159665     -4.93749239      1.32640268
H      -0.75348379     -5.54911251      2.77928036
H       0.91850721     -2.85083901      1.22562140
H       1.85123964     -1.30008566      2.70867557
H      -0.78063317     -0.71585043      2.63438340
H      -0.39263727      1.34472415      2.05617467
H       3.43360579      1.04347420      3.23288363
H       1.59123889      3.48226551      3.59069086
H       2.48751091      2.61235499      4.83079874
H       3.54111773      4.50298323      4.23515979
H       3.31709592      2.94132022      1.22519131
H       3.60224070      2.21612579     -0.87516053
H       3.67301250      1.27623904     -3.11361793
H       2.72854713     -1.63945817     -3.17851216
H       3.18205635     -0.71039090     -4.62515876
H       0.86190801     -0.73437381     -4.27694216
H       1.39268016      0.79566977     -4.12024405
H       5.73592196      0.41121959     -3.47529578
H       6.28257993     -1.80537302     -3.14732027
H       5.52022339     -1.07863714     -0.81328909
H       7.60220002      0.08298924     -0.69725758
H       5.81469527      1.94152361     -1.28426918
H       5.79501284      0.47110173      1.22705937
H       5.95143805      2.06030815      1.07631469
H       0.92666400      3.08422940      1.26191979
H       1.35840987      1.05409293     -0.67650905
H      -2.65538808      2.52269513     -1.11932576
H      -2.98171104      3.48400936      0.98159975
H      -2.90916741      2.01002747      1.75717272
H      -4.78740013      0.98787432      0.49965511
H      -4.97881342      3.20452938      0.53117538
H      -4.62367015      1.42539534     -2.54170996
H      -6.24660771      3.06704989     -1.49896797
