70
CC(C)CN(C[C@@H](O)[C@H](Cc1ccccc1)NC(=O)O[C@H]1CCOC1)S(=O)(=O)c1ccc(N)cc1
C       3.57873383      3.33271303      0.65984327
C       2.84298872      1.99283185      0.61004048
C       3.75364976      0.88325471      1.14067317
C       2.37869226      1.70215744     -0.82786925
N       1.38971949      0.57042154     -0.84372839
C      -0.02056540      1.06926436     -0.58636077
C      -0.74277502      0.10803183      0.37629844
O       0.08103028     -0.12652986      1.53247992
C      -2.15271037      0.58914434      0.81641543
C      -2.16862460      1.68239671      1.90912996
C      -1.71350842      3.05418754      1.47805314
C      -0.59758257      3.64955232      2.08325973
C      -0.16405815      4.91371436      1.68130036
C      -0.84583140      5.59882772      0.67822008
C      -1.96610128      5.02436379      0.08143847
C      -2.40234065      3.76027550      0.48210251
N      -2.89852156     -0.56679300      1.33492030
C      -3.64747935     -1.37130847      0.53451773
O      -3.96167993     -1.12755086     -0.61891753
O      -3.98589653     -2.48747853      1.22225016
C      -4.77915644     -3.42475592      0.49266136
C      -4.97106073     -4.68220660      1.30910938
C      -6.21608641     -5.26947370      0.68866647
O      -7.04005993     -4.16250769      0.29999099
C      -6.22142991     -2.97951895      0.28359505
S       1.48533990     -0.42003673     -2.25373925
O       1.54174496      0.46400797     -3.39878584
O       0.47507825     -1.44998463     -2.14628919
C       3.06124763     -1.21327040     -2.06161717
C       4.13074939     -0.86716711     -2.88788920
C       5.36407941     -1.49960430     -2.71170967
C       5.52139889     -2.50998471     -1.75711563
N       6.78839203     -3.04958005     -1.50647663
C       4.44947489     -2.81525834     -0.91206195
C       3.21119804     -2.19041534     -1.07573180
H       4.46277956      3.32535303      0.01333793
H       3.90633699      3.55942602      1.68016075
H       2.92450431      4.14782527      0.33196847
H       1.97474944      2.06427453      1.27483823
H       4.09284997      1.11320606      2.15640462
H       3.22994708     -0.07575969      1.17996860
H       4.64031249      0.76008815      0.50981309
H       3.25558423      1.47073038     -1.43961483
H       1.91614639      2.59120260     -1.27468614
H       0.05161054      2.06264124     -0.14501327
H      -0.57404877      1.17994115     -1.52487715
H      -0.84581544     -0.86496321     -0.11586117
H       0.97620186     -0.26517111      1.16394116
H      -2.68785187      0.94248516     -0.07298057
H      -1.59074772      1.34855358      2.78065455
H      -3.19593491      1.79553689      2.28515667
H      -0.05234360      3.12695501      2.86665955
H       0.70368068      5.36563231      2.15405239
H      -0.51010765      6.58507989      0.36799056
H      -2.50547537      5.56407983     -0.69342171
H      -3.28770980      3.33522093      0.01325646
H      -2.56461213     -1.00343610      2.18442955
H      -4.29862429     -3.68183101     -0.46100784
H      -5.14430874     -4.42938345      2.36218256
H      -4.11249374     -5.35883841      1.27243259
H      -6.76641659     -5.91494697      1.37892395
H      -5.97771096     -5.84426658     -0.21250974
H      -6.36190314     -2.46326068     -0.67109395
H      -6.56545438     -2.31275420      1.08198598
H       4.02225395     -0.10278290     -3.65356229
H       6.20446136     -1.19879934     -3.33185352
H       7.40697636     -3.03717121     -2.31179764
H       6.76487474     -3.95994451     -1.05781160
H       4.57058179     -3.54878275     -0.11904207
H       2.37965827     -2.45785971     -0.42843295
