113
CC(=O)OC1C(=O)C2(C)C(O)CC3OCC3(OC(C)=O)C2C(OC(=O)c2ccccc2)C2(O)CC(OC(=O)C(O)C(NC(=O)c3ccccc3)c3ccccc3)C(C)=C1C2(C)C
C      -3.43367251     -2.92692992      5.46094852
C      -3.21951914     -1.57711958      4.84305549
O      -3.75110948     -0.54324573      5.22763331
O      -2.36305364     -1.67955611      3.78994041
C      -2.22097184     -0.47707680      3.03746867
C      -3.44770723     -0.16349929      2.12510075
O      -4.41294811     -0.94437765      2.10494880
C      -3.50497452      1.17401777      1.31367461
C      -3.34777604      2.26459033      2.41593798
C      -4.97467863      1.29640818      0.78160799
O      -5.33373093      0.22954863     -0.08363485
C      -5.29237406      2.57751198      0.03670549
C      -4.23648997      2.88973816     -1.01099448
O      -3.96299760      4.32543742     -0.94612312
C      -2.71303707      4.06393777     -0.25621863
C      -2.71428164      2.58106341     -0.78592066
O      -1.96605592      2.49773359     -2.04394553
C      -0.64975723      2.83115151     -1.99999459
C      -0.03762564      2.72806808     -3.36206987
O      -0.04473569      3.12045789     -0.97969166
C      -2.39568323      1.34247778      0.16621576
C      -1.98142997      0.06247919     -0.70837793
O      -3.11695912     -0.77560764     -1.04530169
C      -3.64473387     -0.62798540     -2.29674229
O      -3.32058200      0.22362224     -3.11058990
C      -4.61545011     -1.70952885     -2.62860570
C      -5.09556991     -1.78293580     -3.94598254
C      -5.98022350     -2.79421096     -4.32490399
C      -6.39283559     -3.74067555     -3.38934518
C      -5.92781590     -3.67485869     -2.07572818
C      -5.04086082     -2.66273309     -1.69657136
C      -0.77329545     -0.90207585     -0.25870324
O      -0.63993533     -1.88285336     -1.32558588
C       0.59622728     -0.17602457     -0.24622139
C       0.98875917      0.52612913      1.06772208
O       2.27792214      0.02152805      1.46021507
C       3.29057490      0.91187380      1.59370072
O       3.18223036      2.13236367      1.65106633
C       4.63078216      0.19155041      1.73436018
O       5.68643270      1.13279164      2.01932669
C       4.93051579     -0.63647322      0.45656741
N       5.54712622      0.16661075     -0.59496281
C       4.79988522      0.96722383     -1.42516776
O       3.57477886      0.95839800     -1.43492830
C       5.55053687      1.85527681     -2.35194011
C       4.95696758      2.19411363     -3.57444432
C       5.62818106      3.02454351     -4.47394990
C       6.88391703      3.53446787     -4.14801765
C       7.47031978      3.21863208     -2.92208204
C       6.80541523      2.38267378     -2.02158050
C       5.80919341     -1.85244571      0.72377596
C       6.98747649     -1.76951519      1.48215982
C       7.77621331     -2.90148741      1.70020640
C       7.40121987     -4.12919310      1.15738489
C       6.24059329     -4.22535828      0.39211158
C       5.45335124     -3.09348310      0.16974685
C       0.01993871      0.32255906      2.22869570
C       0.24013693      1.32909436      3.33742247
C      -0.98562124     -0.59362812      2.17514159
C      -0.94991280     -1.68001137      1.08369723
C       0.25605418     -2.63117907      1.38482019
C      -2.11642092     -2.69843431      1.00715452
H      -3.93187155     -2.80597665      6.42716366
H      -4.06838837     -3.53581067      4.81043373
H      -2.46856364     -3.41659487      5.63332095
H      -2.13607981      0.35115503      3.74162799
H      -2.29655254      2.48946388      2.61858334
H      -3.83512874      3.20955292      2.17289609
H      -3.80299035      1.94476151      3.36521445
H      -5.66915513      1.24240694      1.63055091
H      -5.36517540     -0.57180035      0.48498543
H      -6.27241301      2.49757309     -0.45379650
H      -5.38926940      3.40144659      0.75104861
H      -4.57546983      2.61152913     -2.01858376
H      -2.78070526      4.24966773      0.81246096
H      -1.93777967      4.72999849     -0.64266843
H       0.04355159      1.67582066     -3.64711756
H       0.95876182      3.17907206     -3.34968263
H      -0.64633220      3.27631867     -4.08573252
H      -1.47527197      1.65220143      0.66067517
H      -1.58446577      0.41169858     -1.65972365
H      -4.77806673     -1.04729008     -4.68383519
H      -6.34635326     -2.83744786     -5.34691916
H      -7.08460055     -4.52717703     -3.68361516
H      -6.26117217     -4.40957808     -1.34530843
H      -4.70730122     -2.62808450     -0.66605746
H      -1.53544536     -2.16096619     -1.58107847
H       0.63429208      0.54037287     -1.07229988
H       1.38138293     -0.89724261     -0.51912893
H       1.04244815      1.59880031      0.84968074
H       4.53762029     -0.45805599      2.61281382
H       5.29137951      2.01881352      1.86525193
H       3.98247801     -1.01406442      0.05090095
H       6.55893232      0.21186581     -0.60621036
H       3.97239958      1.80681476     -3.82836166
H       5.16309393      3.27845118     -5.42510888
H       7.40200554      4.18262526     -4.85002150
H       8.44020208      3.63479028     -2.66673793
H       7.26556809      2.18913104     -1.05697064
H       7.30959170     -0.82403965      1.91503975
H       8.68455021     -2.82987640      2.29117953
H       8.01404106     -5.01145367      1.32613622
H       5.94983487     -5.17929864     -0.04246181
H       4.55131856     -3.18749029     -0.43239964
H      -0.34080286      1.12049861      4.24006641
H       1.28928594      1.31879122      3.65829907
H       0.00124464      2.34073923      2.98882668
H       0.38567542     -3.37367971      0.58922495
H       1.21538185     -2.12986247      1.50400837
H       0.08764729     -3.18052382      2.31950635
H      -1.93365225     -3.45700032      0.23653784
H      -3.07097480     -2.25547667      0.76055416
H      -2.24862879     -3.25114044      1.94215630
