119
CC1OC(OC2C(O)CC(OC3C(O)CC(OC4CCC5(C)C(CCC6C5CC(O)C5(C)C(C7=CC(=O)OC7)CCC65O)C4)OC3C)OC2C)CC(O)C1O
C     -12.68614603     -0.85467008     -0.91967293
C     -11.70083103     -0.58074004      0.21047603
O     -10.47385198     -0.17540657     -0.41366916
C      -9.75568277      0.83490827      0.28519687
O      -8.54802608      1.10709435     -0.42580655
C      -7.44173592      0.26546487     -0.07138143
C      -7.65508521     -1.23580229     -0.36390315
O      -8.37405841     -1.44489590     -1.58172199
C      -6.33633005     -2.00625942     -0.44916138
C      -5.18539926     -1.23253370      0.18391159
O      -4.01610214     -2.04955264      0.08892609
C      -2.80517108     -1.37325173      0.43931561
C      -1.79903344     -2.35213504      1.06477855
O      -2.34159040     -3.01387577      2.21764033
C      -0.50503372     -1.63553363      1.47227896
C      -0.33894909     -0.31231702      0.72594521
O       1.01972974      0.11044549      0.83722750
C       1.27434483      1.33095379      0.12480800
C       2.08789701      2.25799688      1.03753833
C       3.56237527      1.84402858      1.16219909
C       4.26599974      1.63782958     -0.20638182
C       4.28379941      3.00628953     -0.94715199
C       3.45212134      0.57157213     -0.98443781
C       4.09650159      0.20691433     -2.32189074
C       5.54888940     -0.24947222     -2.15374431
C       6.41084135      0.78360448     -1.40009312
C       5.76778268      1.17471841     -0.04069811
C       6.00966528      0.05352861      0.99104717
C       7.51109908     -0.20172195      1.20721128
O       7.65475603     -1.21685198      2.20149821
C       8.26940595     -0.60114835     -0.09123522
C       8.01850283     -2.08918461     -0.42397113
C       9.82047151     -0.35785033      0.00829401
C      10.56963881     -0.96756738      1.15656320
C      10.76447319     -0.47949915      2.38308442
C      11.63260645     -1.41316056      3.09375091
O      12.01252406     -1.26887226      4.24142977
O      11.95887940     -2.43908664      2.26163247
C      11.30458141     -2.24802581      1.00653411
C       9.96441232      1.16820674     -0.10039874
C       8.78612046      1.63254717     -0.96761008
C       7.90685381      0.38234818     -1.25234952
O       8.39472414     -0.11327733     -2.50796759
C       1.98326638      0.99670542     -1.18866789
O      -0.72259591     -0.50792916     -0.62534346
C      -2.13639938     -0.69044592     -0.79219169
C      -2.31490775     -1.48179633     -2.08582696
O      -4.98301143      0.02546721     -0.44953318
C      -6.16204097      0.77937107     -0.76243731
C      -6.26865277      0.89254219     -2.28280251
C     -10.57857000      2.11594244      0.29432464
C     -12.02603468      1.87911912      0.73356428
O     -12.36439716      2.79782231      1.78288785
C     -12.26537519      0.44904780      1.21837382
O     -11.59121766      0.30042435      2.48620069
H     -12.92009920      0.06190811     -1.47710966
H     -12.24981058     -1.54896034     -1.64560203
H     -13.62042722     -1.28290135     -0.54080895
H     -11.49657332     -1.52792770      0.72776835
H      -9.51409391      0.51043576      1.30612987
H      -7.26457059      0.37276956      1.00865334
H      -8.26877582     -1.65895889      0.43756641
H      -9.17825475     -0.88715136     -1.51694907
H      -6.09422029     -2.21915361     -1.49785887
H      -6.44484623     -2.98705207      0.03454023
H      -5.38656313     -1.06000252      1.24792522
H      -3.03491638     -0.62182698      1.20302247
H      -1.57042649     -3.14799537      0.34925605
H      -2.71748805     -2.33995936      2.80614205
H       0.34199813     -2.29438024      1.25222960
H      -0.45053573     -1.45684848      2.55554222
H      -0.96580856      0.46456776      1.18361312
H       0.32446107      1.83932782     -0.09687918
H       1.64851076      2.26169083      2.04113530
H       2.01667553      3.28561044      0.66652721
H       3.58085133      0.91817117      1.74501489
H       4.09676492      2.60180496      1.74663273
H       3.28632641      3.42312835     -1.09582998
H       4.72766875      2.93779546     -1.94525092
H       4.86163824      3.74788609     -0.38431753
H       3.43555643     -0.34765909     -0.38261695
H       3.53359339     -0.60895315     -2.78798266
H       4.05589024      1.04526728     -3.02381170
H       5.54489091     -1.21199759     -1.63501677
H       5.94899295     -0.42367568     -3.15819096
H       6.41500495      1.67361342     -2.04573018
H       6.30333569      2.04823482      0.34862951
H       5.49916790     -0.86823931      0.70455685
H       5.59203577      0.33237492      1.96347480
H       7.94523716      0.71123395      1.63679131
H       7.18984904     -0.91942403      3.00520459
H       8.37363222     -2.74742980      0.37889682
H       8.54038429     -2.40502044     -1.33384204
H       6.95845322     -2.30091118     -0.55466109
H      10.28695869     -0.76000786     -0.90448611
H      10.39585241      0.43092643      2.82564503
H      10.64846901     -3.09974055      0.80732482
H      12.06768857     -2.18455388      0.22883827
H      10.92484507      1.44707028     -0.55703132
H       9.91100538      1.67388981      0.86806970
H       9.16464806      2.07081001     -1.89838557
H       8.24938462      2.41946354     -0.43594945
H       7.91705757     -0.92736502     -2.73351251
H       1.46071571      0.18432600     -1.70758189
H       1.92876944      1.86512120     -1.85742098
H      -2.56740985      0.29937982     -0.94518708
H      -1.78781307     -0.99091995     -2.91219240
H      -1.87885120     -2.48279051     -1.99730462
H      -3.37154053     -1.57877318     -2.36546024
H      -5.97460502      1.79752078     -0.39631315
H      -7.10154140      1.53769881     -2.58431123
H      -6.38051743     -0.08536019     -2.76362051
H      -5.34582943      1.31471045     -2.68771127
H     -10.59858457      2.52664659     -0.72768180
H     -10.07779190      2.88613912      0.89819702
H     -12.69444016      2.10194241     -0.10593262
H     -11.94227134      2.43296528      2.58768380
H     -13.33364326      0.28137929      1.41837472
H     -11.90009840     -0.54190031      2.87611525
