52
N=NN=NC1=CCc2c(cccc2S(=O)(=O)Oc2ccc(C(=O)c3ccc(O)c(O)c3O)cc2)C1=O
N       9.96095752     -0.66890527      2.79507340
N       8.81027955     -0.34802319      3.14378371
N       8.03548029     -0.17008746      2.00936422
N       6.84066357     -0.39734985      2.27612586
C       5.96673038     -0.27065359      1.22403006
C       4.78671510      0.34121449      1.39668343
C       3.74160796      0.53719500      0.35184640
C       4.04144865     -0.09121035     -0.98408733
C       5.27265342     -0.73629721     -1.19835114
C       5.57822658     -1.30065905     -2.44856829
C       4.66998806     -1.23167741     -3.50053617
C       3.44361794     -0.60515641     -3.31022182
C       3.12547637     -0.04422670     -2.06290519
S       1.51055940      0.72569386     -1.89310157
O       0.81891890      0.55923110     -3.15800419
O       1.74132934      2.04387342     -1.33579663
O       0.77906208     -0.21908196     -0.77430531
C      -0.48654960      0.12328923     -0.38390081
C      -1.58364094     -0.27334210     -1.14767031
C      -2.87409099      0.05361343     -0.72584954
C      -3.05825442      0.75224566      0.47398263
C      -4.40817388      1.13803150      0.94412237
O      -4.58092355      2.26883524      1.39912883
C      -5.57378708      0.22113887      0.86947687
C      -5.41500230     -1.17602912      0.87298658
C      -6.53277188     -2.01586326      0.79463218
C      -7.80246144     -1.45975842      0.72698179
O      -8.88880389     -2.28046357      0.64972442
C      -7.97002159     -0.08169725      0.74995671
O      -9.23732665      0.43464797      0.69793659
C      -6.86730167      0.76193710      0.83355493
O      -7.12982833      2.10949568      0.88107891
C      -1.94986932      1.15093060      1.23128597
C      -0.66081455      0.82342588      0.80814702
C       6.28932179     -0.85803597     -0.11818193
O       7.34878108     -1.43774935     -0.34199580
H      10.01898374     -0.76643305      1.77342171
H       4.55798456      0.75086137      2.37905938
H       3.61901849      1.61754994      0.22267071
H       2.80919636      0.12082886      0.74633324
H       6.53450657     -1.79864372     -2.60768056
H       4.91962476     -1.66798114     -4.46537787
H       2.74379829     -0.56097603     -4.14377250
H      -1.44138827     -0.82031104     -2.07723769
H      -3.71994614     -0.22569659     -1.34978110
H      -4.43234448     -1.63448108      0.95333716
H      -6.41438794     -3.09622714      0.79462179
H      -9.65687840     -1.67360145      0.62695507
H      -9.10283095      1.40523599      0.73876742
H      -6.28386549      2.56197216      1.11119945
H      -2.08975115      1.71863852      2.14939155
H       0.19608414      1.13036773      1.40166538
