111
CC(=O)O[C@@]12CO[C@@H]1C[C@H](O)[C@@]1(C)C(=O)[C@H](O)C3=C(C)[C@@H](OC(=O)[C@H](O)[C@@H](NC(=O)OC(C)(C)C)c4ccccc4)C[C@@](O)([C@@H](OC(=O)c4ccccc4)[C@@H]12)C3(C)C
C      -1.54247963      0.64278092     -3.43000813
C      -2.65412465      0.24552521     -2.51487621
O      -3.81113803      0.57669801     -2.70415240
O      -2.14596126     -0.47295554     -1.47498098
C      -3.01701215     -1.19577301     -0.53468196
C      -4.56621108     -1.26803090     -0.74417418
O      -4.51922133     -2.67459465     -1.05404801
C      -3.07603060     -2.71613480     -0.94556745
C      -2.67877871     -3.85838407     -0.01527053
C      -1.94544902     -3.36942239      1.23676713
O      -1.80620763     -4.46091411      2.13704661
C      -2.62321169     -2.15439515      1.92306855
C      -4.10760505     -2.45897733      2.26099068
C      -1.94860569     -1.97995842      3.32831009
O      -2.58884203     -2.17187266      4.37498788
C      -0.45463214     -1.62439853      3.47224415
O      -0.06209103     -1.55164844      4.83786509
C      -0.13191390     -0.30696684      2.81679156
C       0.73297061     -0.24234251      1.76786754
C       1.72936090     -1.33020688      1.43377452
C       0.70390720      0.94579707      0.81615209
O       0.95240420      0.41108780     -0.50205850
C       1.47568764      1.25408470     -1.43707336
O       1.61115975      2.45880447     -1.28607249
C       1.91892234      0.45726567     -2.67025803
O       1.44860696     -0.89975190     -2.60257792
C       3.46139601      0.53217616     -2.77568838
N       4.11025217     -0.26031461     -1.73848753
C       4.96158141      0.30164184     -0.83420225
O       5.19060011      1.49509041     -0.73581588
O       5.51323672     -0.68260899     -0.09308838
C       6.48099828     -0.35204257      0.93488036
C       7.74400323      0.27945175      0.33840617
C       5.86692338      0.52019882      2.03133360
C       6.86288760     -1.71348763      1.54125089
C       4.02797845      0.11083196     -4.12807868
C       3.54600252     -0.98978281     -4.85330661
C       4.11447297     -1.35593563     -6.06996470
C       5.18437017     -0.62758947     -6.58153635
C       5.68229640      0.46411329     -5.88266514
C       5.10895262      0.82760281     -4.66396039
C      -0.63041134      1.74051871      0.79231423
C      -1.63695531      1.46527061      1.94703167
O      -2.21707700      2.75875585      2.23747017
C      -2.83281630      0.48475743      1.48192408
O      -3.65306424      1.20230462      0.51691710
C      -4.66930749      1.94632674      1.04148935
O      -4.94012168      2.03116804      2.22919074
C      -5.44418449      2.64616886     -0.00142865
C      -6.80425401      2.88503407      0.22079124
C      -7.55273527      3.56693665     -0.74186846
C      -6.94837055      4.01040172     -1.91997204
C      -5.58483673      3.80258630     -2.12357125
C      -4.83209986      3.12356870     -1.16063015
C      -2.45296180     -0.93191392      0.91884298
C      -0.88674324      0.97346475      3.23131521
C       0.15846331      2.02778161      3.73855021
C      -1.86919735      0.86868995      4.43973817
H      -0.93343199      1.41498890     -2.97365402
H      -0.93452776     -0.23180574     -3.67339145
H      -1.95942525      1.02561066     -4.36725882
H      -5.03922855     -0.73377938     -1.58078053
H      -5.17411143     -1.06293591      0.14550995
H      -2.64474492     -2.88602671     -1.95306292
H      -2.02675185     -4.55434392     -0.55195024
H      -3.54929962     -4.46078407      0.27345207
H      -0.92902239     -3.08856683      0.94859126
H      -2.67979969     -4.87016369      2.29943391
H      -4.19452908     -3.33479894      2.91277142
H      -4.58010472     -1.62071923      2.78791722
H      -4.73056736     -2.70133756      1.41187352
H       0.08119979     -2.47739035      3.05699655
H      -0.79928999     -1.94716209      5.35998006
H       1.97168563     -1.96414469      2.29282344
H       2.68572612     -0.88310296      1.13501970
H       1.36158894     -1.95488088      0.61254433
H       1.53877154      1.60336251      1.06933795
H       1.45594575      0.92016998     -3.54556797
H       1.70955678     -1.22148809     -1.71184494
H       3.72531981      1.59353072     -2.64180724
H       4.17527262     -1.26628911     -1.84376279
H       8.08335997     -0.28599006     -0.53570794
H       7.55537637      1.29235990     -0.00623636
H       8.55516987      0.33387499      1.07400332
H       5.63753471      1.52886685      1.67294444
H       6.54397153      0.62951426      2.88273854
H       4.93157422      0.09861514      2.40232714
H       7.26275935     -2.38252080      0.77525115
H       7.61151923     -1.61117262      2.33059297
H       5.99505288     -2.22145501      1.96493564
H       2.71918556     -1.59911289     -4.49383934
H       3.72516220     -2.20231072     -6.62921537
H       5.63373669     -0.90552823     -7.53151480
H       6.52737914      1.03090922     -6.27664590
H       5.53048344      1.66441439     -4.11213494
H      -1.12733346      1.63259503     -0.17478344
H      -0.36105705      2.80520232      0.80493824
H      -3.04483068      2.62278898      2.75149731
H      -3.46382404      0.29684855      2.35014678
H      -7.27584284      2.54836210      1.14171371
H      -8.61085484      3.74805507     -0.57742100
H      -7.53040132      4.54742213     -2.66478314
H      -5.11392457      4.16266988     -3.03647936
H      -3.76847792      2.97931119     -1.32774062
H      -1.38329099     -0.90293613      0.72814440
H       0.63715348      1.67283205      4.66448195
H       0.96119302      2.24374231      3.02947713
H      -0.33273213      2.97862128      3.96924458
H      -2.73962783      0.23717971      4.24469591
H      -1.36490137      0.49438667      5.33857725
H      -2.27652770      1.85803004      4.69756455
