75
CC(C)CN(C[C@@H](O)[C@H](Cc1ccccc1)NC(=O)O[C@H]1CO[C@H]2OCC[C@@H]12)S(=O)(=O)c1ccc(N)cc1
C      -4.29144450      3.52048346     -0.81039261
C      -3.83490906      2.15103525     -0.30233367
C      -3.94722697      2.09986473      1.22191535
C      -2.40405717      1.86293050     -0.78760899
N      -2.04140617      0.43591528     -0.53041938
C      -0.99377181      0.27659099      0.54183114
C       0.46080169      0.31709641      0.02405787
O       0.68038876      1.45269148     -0.82963446
C       1.52921798      0.30886186      1.15725963
C       1.70919167      1.65074097      1.90381292
C       0.64336891      1.99978896      2.91249373
C       0.38387909      1.16115537      4.00518587
C      -0.59780547      1.49818959      4.93889356
C      -1.31714939      2.68345761      4.80013448
C      -1.05395516      3.53447534      3.72918933
C      -0.07783452      3.19619638      2.79035163
N       2.82995823     -0.05278190      0.57086435
C       3.18708125     -1.34418591      0.33860352
O       2.60270225     -2.32658824      0.76702288
O       4.28095298     -1.36599169     -0.45811257
C       4.73790039     -2.66889119     -0.82133153
C       5.79120075     -2.58571783     -1.91386750
O       6.59310807     -3.76646433     -1.80389762
C       6.40538327     -4.32003571     -0.49491596
O       7.64471362     -4.38819645      0.21345291
C       7.54768023     -3.56560198      1.37937940
C       6.44067327     -2.57228080      1.11200661
C       5.48207809     -3.39574074      0.27471243
S      -1.85606537     -0.57116115     -1.89090389
O      -1.62257919     -1.91832706     -1.42013374
O      -0.90043879      0.08910452     -2.76068087
C      -3.45266826     -0.53787583     -2.65550154
C      -4.51407387     -1.20395540     -2.03917289
C      -5.77845215     -1.17520875     -2.63136267
C      -5.97898097     -0.53360503     -3.85841980
N      -7.27085765     -0.40244812     -4.37953831
C      -4.91348999      0.16113720     -4.44099983
C      -3.64308190      0.14155483     -3.85983793
H      -3.65114655      4.32172473     -0.42556675
H      -5.32045707      3.72875035     -0.49827168
H      -4.26198519      3.55689661     -1.90463521
H      -4.51924376      1.40058263     -0.71199536
H      -3.69857197      1.10545817      1.60656027
H      -4.96912181      2.32704762      1.54292405
H      -3.27877487      2.82760115      1.69294609
H      -1.69694516      2.54344871     -0.29901702
H      -2.32792874      2.08245845     -1.85861417
H      -1.16611078      1.06334352      1.27696974
H      -1.17823054     -0.67058018      1.06210641
H       0.63332281     -0.57251445     -0.59407340
H       0.27548660      1.21807576     -1.69389585
H       1.26994362     -0.48935235      1.86420551
H       2.65919715      1.63043570      2.45576401
H       1.82840804      2.46649538      1.17973237
H       0.94904306      0.24179112      4.14575441
H      -0.79400995      0.83968633      5.78125352
H      -2.07720663      2.94700046      5.53115291
H      -1.60782718      4.46413431      3.62573010
H       0.11534508      3.87301161      1.96016488
H       3.28605883      0.62569429     -0.02725892
H       3.90507054     -3.28264169     -1.19149505
H       6.43699726     -1.70772288     -1.80288392
H       5.34423891     -2.53894340     -2.91141212
H       5.99674806     -5.32926989     -0.60512181
H       8.50931775     -3.08348584      1.57320312
H       7.30169047     -4.21101485      2.22953585
H       5.99029143     -2.18567946      2.03140633
H       6.83921766     -1.71969564      0.55024959
H       4.81457445     -3.95519425      0.93930086
H      -4.36788038     -1.72220035     -1.09420316
H      -6.61034250     -1.65986501     -2.12634275
H      -7.29719665     -0.22151542     -5.37870703
H      -7.90189456     -1.15110052     -4.10956941
H      -5.06693859      0.72369551     -5.35930216
H      -2.82317099      0.66723117     -4.34371182
