77
C=C(C)[C@@H]1C2OC(=O)C1[C@]1(O)CC3O[C@]34C(=O)O[C@H]2[C@@]41C.CC(C)(O)[C@@H]1C2OC(=O)C1[C@]1(O)C[C@H]3O[C@]34C(=O)O[C@H]2[C@@]41C
C       2.66567601     -0.36866481      1.57855099
C       2.45401486      0.42062277      0.51362593
C       3.08774160      1.79095077      0.47333280
C       1.72280432     -0.02093966     -0.73916750
C       0.77390316      0.98256136     -1.38537205
O       0.23450382      0.23945416     -2.49504065
C       0.31709449     -1.09211915     -2.19923418
O      -0.01288212     -1.98774223     -2.95457779
C       0.78162632     -1.24054350     -0.77312374
C      -0.45624137     -1.17481276      0.16351904
O      -0.04227738     -1.65724802      1.44707053
C      -1.62830497     -2.10859459     -0.30833976
C      -2.60413377     -1.20322708     -0.99453282
O      -3.47118672     -0.46869062     -0.11736502
C      -2.30427647      0.19121109     -0.61175298
C      -2.43692889      1.38632075     -1.43058979
O      -3.35956110      1.65111150     -2.17940155
O      -1.34136030      2.16996553     -1.18529830
C      -0.35005131      1.41424065     -0.43026623
C      -1.10363305      0.25371945      0.27160496
C      -1.50108614      0.67387291      1.69521388
C       2.68260426      0.59202038      1.85826790
C       2.50327839     -0.09637796      0.49558248
C       3.14430805     -1.48824960      0.57396550
O       3.22297135      0.68755987     -0.44988331
C       0.99018559     -0.15971494      0.12657419
C       0.66642745     -0.88274749     -1.17716421
O       1.04603851      0.05246161     -2.19062240
C       0.76364192      1.29871538     -1.71101787
O       0.69029640      2.30198745     -2.39950769
C       0.39461854      1.20275626     -0.25015535
C      -1.14372258      1.21430603     -0.16009946
O      -1.67769177      2.40328544     -0.75488596
C      -1.60366711      1.29099135      1.33647735
C      -2.14036494     -0.05197832      1.69033427
O      -3.42768927     -0.39125091      1.15157398
C      -2.27316208     -0.85376113      0.45703308
C      -1.93856111     -2.26460298      0.38654638
O      -2.24677697     -3.12308258      1.19255752
O      -1.14416184     -2.43998293     -0.70662664
C      -0.84397971     -1.16592950     -1.34323836
C      -1.80924039     -0.09072820     -0.74061635
C      -2.97272560      0.17780534     -1.70272556
H       3.23437092     -0.02619386      2.43935125
H       2.31411336     -1.39381000      1.62980131
H       3.72914726      1.97542878      1.34200743
H       2.32657545      2.57559960      0.45741991
H       3.71204170      1.89200252     -0.42065175
H       2.52516454     -0.22155428     -1.46988217
H       1.29212250      1.85425523     -1.79877745
H       1.35012752     -2.16866628     -0.65199134
H      -0.82320432     -1.82213414      2.00633427
H      -2.12089222     -2.59734571      0.54120013
H      -1.28124357     -2.91331106     -0.96312345
H      -2.92763473     -1.46692505     -1.98860430
H       0.06382359      2.10030571      0.31676085
H      -2.16310260     -0.06082384      2.16624279
H      -0.61653483      0.79314851      2.32996079
H      -2.04031557      1.62857535      1.69211119
H       2.14406831      0.06231562      2.65101790
H       3.74300385      0.63660084      2.13399391
H       2.33810197      1.63068600      1.83829105
H       4.17895826     -1.41870894      0.93034010
H       3.20674045     -1.96396929     -0.40978045
H       2.59144761     -2.14761354      1.25078907
H       3.40088088      0.15727249     -1.24860652
H       0.47724086     -0.63203788      0.97047347
H       1.23549581     -1.80625244     -1.30830742
H       0.84179872      2.04821389      0.27928856
H      -1.17752101      2.66067299     -1.55612785
H      -0.76931953      1.55098247      1.99734035
H      -2.38002996      2.05119430      1.48440261
H      -1.83583890     -0.47779983      2.63256226
H      -1.05193012     -1.29705472     -2.41283926
H      -3.73334431      0.82136197     -1.24691921
H      -2.61792312      0.66421881     -2.61767822
H      -3.47445685     -0.75356531     -1.99020912
