97
CC(=O)C(N=Nc1cc(C(=O)Nc2cccc(Cl)c2C)ccc1Cl)C(=O)Nc1cc(Cl)c(NC(=O)C(N=Nc2cc(C(=O)Nc3cccc(Cl)c3C)ccc2Cl)C(C)=O)cc1C
C       6.80285809     -2.38901976     -1.62765185
C       5.96207721     -1.59039628     -2.59681166
O       6.10751049     -1.73876730     -3.81440166
C       4.98927811     -0.56547136     -2.04456473
N       5.69890413      0.23812187     -1.02502639
N       6.20429591      1.27574513     -1.50902899
C       6.88546905      1.99608238     -0.50921096
C       8.22393019      1.68272931     -0.22963230
C       8.93157037      2.39913664      0.74457154
C      10.35740320      2.09890469      1.05338019
O      11.07473464      3.03288846      1.37409690
N      10.70137957      0.76280546      0.97281712
C      11.98123527      0.18039932      1.16263943
C      13.11837904      0.96758851      1.39284042
C      14.36848938      0.38998557      1.59987591
C      14.49983420     -0.99204518      1.57511426
C      13.38594493     -1.79870804      1.33067465
Cl     13.66186595     -3.50671285      1.32030132
C      12.11061575     -1.23337548      1.10995418
C      10.90501128     -2.10287468      0.83549205
C       8.31098852      3.45725901      1.41979590
C       6.98404463      3.78770219      1.14099113
C       6.27638308      3.06143722      0.17806652
Cl      4.64074882      3.51619796     -0.15277480
C       3.76898333     -1.18623759     -1.37736218
O       3.72165259     -2.38169618     -1.10722837
N       2.76933787     -0.25494233     -1.10570688
C       1.45966644     -0.51744974     -0.62882529
C       0.92588177     -1.80970390     -0.59004722
C      -0.38232212     -2.03178897     -0.13971933
Cl     -0.96388815     -3.66425226     -0.13776393
C      -1.18948816     -0.97553093      0.30946504
N      -2.49995596     -1.25495491      0.76557818
C      -3.37198016     -0.41827012      1.43542263
O      -3.09330661      0.73040610      1.79611339
C      -4.75952241     -0.98340815      1.74929715
N      -5.78725723     -0.15660013      1.06912089
N      -5.68678000     -0.17474932     -0.17832346
C      -6.63231378      0.69699360     -0.75348339
C      -7.93526430      0.24048531     -0.99792431
C      -8.86095617      1.08277790     -1.62181418
C     -10.22559019      0.59591004     -1.91000039
O     -10.53344421      0.43312856     -3.08262561
N     -11.00387565      0.43457225     -0.77991033
C     -12.35103084     -0.01173354     -0.72067354
C     -12.97168168     -0.59431039     -1.83376867
C     -14.29308169     -1.03587668     -1.77536187
C     -15.01959990     -0.89019440     -0.60145516
C     -14.42040438     -0.31947803      0.52394618
Cl    -15.41296533     -0.19206829      1.93578737
C     -13.07947103      0.12698729      0.49143195
C     -12.43546871      0.75815959      1.70203659
C      -8.50649882      2.37784339     -2.01857333
C      -7.21791890      2.84284182     -1.76872318
C      -6.28540351      2.00416301     -1.14330816
Cl     -4.69433321      2.62161112     -0.89046478
C      -5.04507732     -2.44612972      1.47598623
C      -6.43177049     -2.94840362      1.79015422
O      -4.19212831     -3.22144089      1.03640618
C      -0.65896096      0.31319512      0.25960311
C       0.64976050      0.56074217     -0.21429391
C       1.13896599      1.98788987     -0.23003587
H       6.22235056     -2.66039565     -0.73989172
H       7.67769216     -1.79772008     -1.33257886
H       7.13719784     -3.31032631     -2.11588945
H       4.64339070      0.06767249     -2.87490322
H       8.70817061      0.90396733     -0.81356296
H       9.93707836      0.11214024      0.85037734
H      13.06794478      2.05395419      1.41480760
H      15.23278096      1.02416234      1.78260849
H      15.47534414     -1.43706205      1.75234085
H      10.20163802     -2.04998408      1.67397684
H      10.40286702     -1.77178736     -0.08024677
H      11.14420608     -3.15629217      0.67300978
H       8.86522909      4.02828664      2.16389022
H       6.51938670      4.62132612      1.66205804
H       3.04040875      0.72079259     -1.17407127
H       1.49600600     -2.66854868     -0.93688291
H      -2.78590218     -2.23330875      0.65378300
H      -4.88353608     -0.85790180      2.83240785
H      -8.20780790     -0.77786151     -0.74153121
H     -10.59497757      0.76175554      0.08521233
H     -12.43584061     -0.74605276     -2.76779934
H     -14.75398139     -1.48810208     -2.65136242
H     -16.05202180     -1.23121826     -0.56129550
H     -11.57149306      0.16016033      2.01637369
H     -13.09503082      0.83278524      2.57119977
H     -12.10734354      1.77950581      1.46666487
H      -9.23122320      3.01344527     -2.52126791
H      -6.94295488      3.85011930     -2.07662375
H      -6.74591447     -2.58186038      2.77102231
H      -6.42663940     -4.04244734      1.81608302
H      -7.12870929     -2.61550522      1.01945609
H      -1.26143458      1.16422306      0.56412428
H       1.95895725      2.11102714      0.48864543
H       0.34295436      2.69069963      0.04645891
H       1.47574729      2.26225137     -1.23608595
