36
BrC1CCC(Br)C(Br)CCC(Br)C(Br)CCC1Br
Br     -0.78036362      4.05437496      1.14188995
C      -0.29816056      2.67969131     -0.18815999
C       1.10057481      2.14957115      0.17638844
C       1.80553960      1.44704394     -1.00418756
C       2.82861145      0.33536844     -0.67863697
Br      3.95377006      0.84600822      0.84125686
C       2.20088494     -1.06620102     -0.53526918
Br      3.58758207     -2.44889377     -0.39833770
C       1.17499193     -1.22369901      0.58783145
C       0.38282702     -2.53877691      0.55892839
C      -1.03702916     -2.44491260      1.15655721
Br     -0.93651497     -1.96797442      3.04876478
C      -2.00219477     -1.57405919      0.31245321
Br     -3.47450108     -2.79064661     -0.30841950
C      -2.70762590     -0.33438081      0.89439666
C      -1.85707824      0.94617285      1.03603859
C      -1.38484126      1.58432482     -0.28744131
Br     -2.93981985      2.32480446     -1.25644960
H      -0.22633906      3.24420083     -1.12558290
H       1.03535903      1.51124628      1.06098173
H       1.74067890      2.99090999      0.47599383
H       1.07076799      1.04074851     -1.70890639
H       2.33099338      2.23153207     -1.56720635
H       3.54200527      0.29787993     -1.51221401
H       1.71096369     -1.30557188     -1.48762588
H       1.65038145     -1.10618222      1.56815938
H       0.45520110     -0.42013638      0.47993971
H       0.95332366     -3.30613064      1.09792144
H       0.28905542     -2.89673714     -0.47429158
H      -1.40132520     -3.47743537      1.21281046
H      -1.54426704     -1.32571554     -0.65043704
H      -3.14513873     -0.57746044      1.87051340
H      -3.57576968     -0.08383978      0.27222517
H      -0.99806740      0.73079654      1.67602876
H      -2.46950356      1.66710214      1.59255976
H      -1.03497170      0.80697730     -0.97150219
