95
C/C=C(\C)C(=O)O[C@H]1C[C@@H](OC(C)=O)[C@@]2(C(=O)OC)CO[C@H]3[C@@H](O)[C@@](C)([C@]45O[C@@]4(C)[C@H]4C[C@@H]5O[C@@H]5OC=C[C@@]54O)[C@@H]4[C@@](O)(C(=O)OC)OC[C@@]14[C@@H]32
C      -3.25769701      5.41842234     -3.48322430
C      -3.39669705      4.32014403     -2.47511739
C      -2.76770385      3.12498660     -2.49532388
C      -1.83662266      2.66955874     -3.57316687
C      -3.10221764      2.19080031     -1.39355565
O      -4.22169640      2.09870316     -0.90755914
O      -2.01335103      1.46649669     -1.00718083
C      -2.27906441      0.47220952     -0.00901586
C      -2.79605292     -0.80368996     -0.71490458
C      -3.23396070     -1.89975811      0.28734048
O      -3.41883454     -3.10620261     -0.48249081
C      -4.65700630     -3.67650639     -0.47235798
C      -4.65760692     -4.89419104     -1.34791622
O      -5.61911762     -3.28531684      0.17059709
C      -2.20368320     -2.12466761      1.42141444
C      -2.86902074     -1.86804265      2.76810352
O      -2.47945384     -1.05268191      3.59422557
O      -3.95410031     -2.67520284      2.93220766
C      -4.68652593     -2.44710287      4.13951314
C      -1.52513226     -3.49941380      1.52880989
O      -0.16387954     -3.28391058      2.00282203
C       0.10394557     -1.86238920      2.02075109
C       1.46427523     -1.54352512      1.37752892
O       1.52084446     -2.17584825      0.09193578
C       1.68613855      0.01001644      1.26701473
C       1.98349067      0.42095807      2.75097988
C       2.98399591      0.29564842      0.44476997
O       2.88680057      1.46845228     -0.39031608
C       3.23756362      0.24403600     -1.05593152
C       2.30763004     -0.10624201     -2.16493286
C       4.74395840      0.03002048     -1.24700720
C       5.34607424      0.67378116      0.01449028
C       4.37182227      0.12806183      1.07090229
O       4.67602604     -1.24513880      1.32579079
C       4.78255982     -2.11345581      0.18501463
O       5.86556714     -3.05848210      0.44343246
C       6.87754759     -2.65126083     -0.39616231
C       6.54434745     -1.77555498     -1.33769711
C       5.09092079     -1.46791904     -1.21175785
O       4.47499497     -2.15349903     -2.30414281
C       0.37792463      0.77678199      0.61343283
C       0.24204436      2.29930609      0.95131870
O       1.26280335      2.80137206      1.80167856
C       0.25834128      3.22647439     -0.30926291
O       0.41813761      2.89292276     -1.47608105
O       0.12056140      4.53220671      0.10275597
C       0.22841477      5.48682505     -0.95622573
O      -0.95801963      2.42747636      1.72609606
C      -1.34460083      1.12467200      2.18308062
C      -1.05389442      0.21942887      0.98836092
C      -0.96989080     -1.28752809      1.14954032
H      -2.94812143      6.34174532     -2.98290438
H      -4.22238082      5.60337910     -3.96175492
H      -2.51934161      5.19405107     -4.25965663
H      -4.08310905      4.54407141     -1.65588340
H      -0.95604296      3.31523411     -3.62419285
H      -1.49148893      1.64090413     -3.42104554
H      -2.34197036      2.68940508     -4.54653259
H      -3.12563859      0.80237707      0.60606626
H      -2.04845654     -1.18128250     -1.42650062
H      -3.64970316     -0.56117371     -1.35986846
H      -4.18861753     -1.55607419      0.70587932
H      -4.22555957     -4.64994329     -2.32258513
H      -4.09057306     -5.69810386     -0.86791686
H      -5.69010566     -5.22308206     -1.51044302
H      -4.05271358     -2.64622240      5.01105583
H      -5.07558988     -1.42132579      4.16055201
H      -5.53684062     -3.13871104      4.16183724
H      -2.01152726     -4.19696732      2.21806379
H      -1.42650651     -4.00279244      0.56181953
H       0.05014078     -1.52538487      3.06065224
H       2.25416227     -2.02415377      1.96523861
H       1.24661759     -3.10086975      0.25243308
H       2.53591175      1.35832440      2.83789875
H       2.63500560     -0.31302011      3.24155959
H       1.09771808      0.48539288      3.37470748
H       2.84074929     -0.10376982     -3.12393461
H       1.87758141     -1.10215109     -2.03604924
H       1.49330251      0.61365668     -2.27880131
H       5.09821129      0.51499900     -2.16031532
H       6.38760677      0.39605636      0.20516412
H       5.28990471      1.76894942     -0.04490939
H       4.49292705      0.68853824      1.99937286
H       3.87496565     -2.71531282      0.13322967
H       7.82767948     -3.13011873     -0.22678905
H       7.19878160     -1.38791670     -2.10197910
H       4.67874650     -3.10206586     -2.19845836
H       0.45085947      0.63087421     -0.46492196
H       1.05502636      3.74976923      1.88781320
H      -0.66483904      5.45401015     -1.58454210
H       1.12865242      5.31475234     -1.55568074
H       0.30054076      6.47879451     -0.50866991
H      -2.39484274      1.16920144      2.48258429
H      -0.77955473      0.87878497      3.07958628
H      -0.68246789     -1.61506093      0.13624364
