120
CCCCCCC(O)CCCCCCCCCCC(=O)NCCNC(=O)CCCCCCCCCCC(O)CCCCCC
C     -12.66315330     -2.82193720      4.43620440
C     -12.00217363     -1.90111698      3.41950742
C     -11.28892174     -2.69612069      2.32458628
C     -10.35761510     -1.86551960      1.43161264
C     -11.04903703     -0.85720263      0.50179104
C     -11.40384552      0.50555693      1.10006184
C     -10.26531080      1.27367828      1.79201037
O     -10.80194714      2.49975351      2.29928560
C      -9.11082805      1.61072330      0.84116341
C      -7.94338951      2.30422048      1.56032826
C      -6.86815534      2.83658329      0.60720743
C      -6.28434098      1.82264535     -0.37809594
C      -5.54009936      0.66684275      0.29198538
C      -5.08523249     -0.35179385     -0.75643552
C      -4.27153923     -1.48983698     -0.13008403
C      -4.05129741     -2.67491865     -1.07562613
C      -2.82412530     -2.59112922     -1.98898233
C      -2.79405189     -1.37732862     -2.91073036
C      -1.84926938     -1.54118131     -4.08901500
O      -1.40507201     -2.61820124     -4.46971707
N      -1.59756507     -0.34393260     -4.73422502
C      -0.62626468     -0.28855366     -5.81432877
C       0.82272860     -0.22732756     -5.30598175
N       1.25909640      1.10113305     -4.88059667
C       0.72243829      1.76896298     -3.80593048
O      -0.26167514      1.38520629     -3.18138747
C       1.42548064      3.06929002     -3.46262447
C       2.87550625      2.85102218     -3.03587193
C       3.46105191      4.10298549     -2.38084818
C       4.98393505      4.07913284     -2.20364905
C       5.54115249      2.97006692     -1.30715123
C       5.85638453      1.66888252     -2.05814803
C       6.81571564      0.74878916     -1.29365935
C       6.27121877      0.26281397      0.05335301
C       7.14315386     -0.82343409      0.69600196
C       8.61997511     -0.45799222      0.89684094
C       8.86423007      0.73045961      1.84157933
O       8.59722326      0.34961925      3.18946213
C      10.29055974      1.29343776      1.74761093
C      11.45051603      0.28610504      1.80731336
C      11.57131414     -0.47450662      3.12808493
C      12.82522983     -1.35232089      3.14316654
C      12.96737909     -2.10520599      4.47055637
C      14.20014926     -2.99766027      4.46958247
H     -13.39390519     -3.48011603      3.95342281
H     -13.18332902     -2.23336868      5.19746100
H     -11.91693427     -3.44703605      4.94274307
H     -11.28601216     -1.25420025      3.93785796
H     -12.77713079     -1.26557116      2.98054719
H     -10.67835196     -3.47526983      2.79614805
H     -12.03166605     -3.21451509      1.70570490
H      -9.83000833     -2.58318431      0.78938920
H      -9.58396698     -1.38317335      2.03715663
H     -10.39554433     -0.69460389     -0.36811269
H     -11.96079493     -1.31010712      0.09469995
H     -12.23492968      0.39644557      1.80615686
H     -11.81459975      1.13688308      0.29308967
H      -9.89246047      0.71135944      2.65334881
H     -11.49651989      2.27195675      2.94154401
H      -8.74097284      0.68981790      0.37797532
H      -9.47308027      2.27066860      0.04238968
H      -8.31729511      3.15266936      2.14641652
H      -7.49357340      1.60838207      2.27980167
H      -7.29731814      3.66203366      0.02588664
H      -6.05401797      3.27115565      1.20229417
H      -7.07456831      1.44054305     -1.03364389
H      -5.58259993      2.35372225     -1.03360989
H      -4.67504174      1.05756491      0.84173201
H      -6.18644063      0.16176393      1.01596491
H      -5.97374416     -0.76490960     -1.25349886
H      -4.50029637      0.16681764     -1.51942328
H      -4.83218484     -1.86333556      0.73872190
H      -3.31359533     -1.11301202      0.24691259
H      -4.94990871     -2.84683621     -1.68429019
H      -3.92237991     -3.57606554     -0.45974083
H      -2.79341874     -3.51179777     -2.58416042
H      -1.90915656     -2.59794275     -1.38210867
H      -2.49194632     -0.49345814     -2.33846689
H      -3.79155200     -1.19784290     -3.33225739
H      -1.60734450      0.48069220     -4.13110208
H      -0.75381913     -1.17813006     -6.44390803
H      -0.86076541      0.59659805     -6.41461928
H       0.98588740     -0.91510022     -4.46959898
H       1.49663768     -0.50998082     -6.12220860
H       2.11711832      1.45509234     -5.28635968
H       0.86072249      3.54543612     -2.65126813
H       1.37511751      3.73774768     -4.32959670
H       3.48036426      2.57127637     -3.90747145
H       2.91589331      2.01455259     -2.33057767
H       3.21543399      4.98144914     -2.99359553
H       2.98150932      4.25619516     -1.40726967
H       5.26864620      5.04055940     -1.75441097
H       5.46968353      4.05678263     -3.18913662
H       6.47348550      3.34154772     -0.85977441
H       4.85570662      2.77614481     -0.47685095
H       6.32291323      1.90730200     -3.02245994
H       4.93732949      1.12108001     -2.27880739
H       7.03482797     -0.11924127     -1.92823609
H       7.76424000      1.28011150     -1.14382878
H       6.15632959      1.10416947      0.74550564
H       5.26782224     -0.15429573     -0.09341150
H       7.10242609     -1.71733209      0.05904325
H       6.69844094     -1.11776671      1.65715856
H       9.11517099     -1.34785090      1.30439461
H       9.07486889     -0.26275088     -0.07927852
H       8.18478286      1.55661110      1.59862157
H       7.66793079      0.07621556      3.24165815
H      10.43413243      2.03123398      2.54529759
H      10.38105775      1.83579565      0.79506493
H      12.38059486      0.84254376      1.63984985
H      11.37195580     -0.42265982      0.97713059
H      10.68878342     -1.10718474      3.28160009
H      11.61212622      0.23993148      3.96072760
H      13.71370594     -0.72496816      2.98554701
H      12.78052066     -2.07214334      2.31261353
H      12.07683232     -2.72177117      4.64981143
H      13.04506933     -1.38634932      5.29578324
H      15.11027322     -2.41599012      4.30409908
H      14.29683562     -3.51191246      5.43117246
H      14.13646849     -3.75953214      3.68443194
