99
CC(C)(C)NC(=O)[C@@H]1CN(Cc2cccnc2)CCN1C[C@@H](O)C[C@@H](Cc1ccccc1)C(=O)N[C@H]1c2ccccc2C[C@H]1O.O=S(=O)(O)O
C      -4.89754212     -4.37707279      1.01197473
C      -4.53100900     -3.41762767     -0.13272155
C      -3.70747776     -4.20176161     -1.17159601
C      -5.80725900     -2.89491714     -0.81195114
N      -3.70615296     -2.30518748      0.34918764
C      -4.11040068     -1.35453083      1.27199852
O      -5.12576886     -1.45454757      1.95500607
C      -3.08539714     -0.20112285      1.43437728
C      -3.77143209      1.09741830      1.93642834
N      -4.51561992      1.83298073      0.89378755
C      -5.06989127      3.08568151      1.42756201
C      -6.15716591      3.66352421      0.55816719
C      -7.26690812      2.90389831      0.17248058
C      -8.26259691      3.47906581     -0.61043936
C      -8.12067243      4.80717176     -0.97694209
N      -7.06985236      5.57852421     -0.62083215
C      -6.11693019      4.98990166      0.13878478
C      -3.66558203      2.05750988     -0.28870105
C      -3.06927496      0.73079059     -0.80856302
N      -2.26631793     -0.04106290      0.17261272
C      -0.97471491      0.61509329      0.50549645
C       0.06703112      0.62566405     -0.64461155
O      -0.28163203      1.65218794     -1.58343823
C       1.49742018      0.94612425     -0.17008306
C       2.12913491     -0.03751531      0.83457023
C       2.26142012     -1.49895804      0.36716333
C       3.22457538     -1.77892836     -0.76131577
C       4.50720621     -2.26959379     -0.47532015
C       5.42844469     -2.49798761     -1.49936736
C       5.07578749     -2.24876781     -2.82206229
C       3.79787569     -1.78320549     -3.12292018
C       2.87521433     -1.55488394     -2.09943087
C       3.42717909      0.54140765      1.39978316
O       3.56974175      0.70708654      2.60934759
N       4.38370735      0.90053535      0.48203191
C       5.68236321      1.40781490      0.90036674
C       6.68502424      0.30887867      1.09439804
C       6.76777995     -0.58641988      2.15041214
C       7.77927217     -1.54766060      2.12846875
C       8.68627547     -1.60624214      1.05934716
C       8.59453799     -0.70506136     -0.00335451
C       7.59329568      0.25154209      0.03064546
C       7.29328291      1.29589719     -0.99655771
C       6.35578539      2.24715308     -0.22764625
O       5.40604827      2.83208723     -1.12025994
O       0.75166553      0.43643704     -1.45851040
S       0.43004948      0.04893783     -0.10817441
O       1.41714883     -0.18972577      0.91431632
O      -0.50445296     -1.24923925     -0.22334809
O      -0.59798620      1.12203119      0.49869630
H      -3.99639207     -4.75214661      1.51011192
H      -5.51848214     -3.89145970      1.77338564
H      -5.45999627     -5.24001843      0.63791817
H      -4.26332178     -5.06428008     -1.55280327
H      -2.76999375     -4.56784549     -0.73595527
H      -3.44464291     -3.56812953     -2.02665372
H      -5.56313911     -2.18329998     -1.60964607
H      -6.38642145     -3.71367033     -1.25441646
H      -6.46073481     -2.37397784     -0.10345579
H      -2.95488292     -1.96059918     -0.24873160
H      -2.42532584     -0.56405816      2.23566203
H      -2.99767838      1.75298990      2.35723350
H      -4.45491581      0.85384978      2.75910480
H      -5.52789379      2.90467478      2.40988760
H      -4.26953525      3.82007469      1.59134258
H      -7.34747873      1.86202154      0.48059593
H      -9.12563455      2.90329691     -0.92336329
H      -8.87264760      5.29931388     -1.58773717
H      -5.29239728      5.64409657      0.41010334
H      -2.86076437      2.76703603     -0.06329659
H      -4.26064149      2.49144582     -1.10179705
H      -3.90171962      0.09597614     -1.13959594
H      -2.50220573      0.90857350     -1.72553134
H      -0.54866684      0.03772752      1.32999524
H      -1.12867450      1.63770641      0.87071335
H       0.04294547     -0.33229808     -1.17448042
H       0.29139679      1.54892856     -2.36412663
H       2.14471927      1.05002604     -1.05064071
H       1.49255766      1.95309255      0.27425738
H       1.46696321     -0.06635562      1.70997587
H       2.56225321     -2.10694207      1.23201256
H       1.27602952     -1.88929157      0.08557218
H       4.80944347     -2.46703372      0.55230691
H       6.42407799     -2.86248981     -1.25749237
H       5.79436328     -2.42429676     -3.61975110
H       3.51919947     -1.60181582     -4.15799262
H       1.88136312     -1.20650128     -2.36508941
H       4.36053501      0.45206200     -0.42778102
H       5.57346469      2.01413322      1.80629438
H       6.06208187     -0.54114202      2.97633824
H       7.86777007     -2.25555802      2.94930708
H       9.46877105     -2.36187301      1.05994208
H       9.29434948     -0.75773266     -0.83174213
H       8.19706423      1.82085829     -1.32175881
H       6.80152429      0.85657410     -1.87145936
H       6.94679132      3.05528284      0.22246156
H       4.54771747      2.82819068     -0.65550834
H      -0.94817235     -1.20914613     -1.09753838
H      -0.54825232      1.04070508      1.47455867
