63
Cc1cc(C2(c3cc(C)c(O)c(Br)c3C(C)C)OS(=O)(=O)c3ccccc32)c(C(C)C)c(Br)c1O
C      -2.11995820      2.29587490      3.73883569
C      -2.01839356      1.18515455      2.73315835
C      -1.28426956      1.35440742      1.55884663
C      -1.14098062      0.33285047      0.57963767
C      -0.29037938      0.66142453     -0.69193114
C       0.93801415     -0.28546541     -0.94862508
C       1.13359070     -0.66218777     -2.30957819
C       2.11494025     -1.56312519     -2.72895797
C       2.22247509     -1.90268295     -4.18838955
C       2.93139915     -2.13081644     -1.75708568
O       3.87397294     -3.06543979     -2.10881712
C       2.82394386     -1.75106608     -0.40052278
Br      4.01748147     -2.65144398      0.80335046
C       1.86763245     -0.78219609      0.03239741
C       1.87551469     -0.23813104      1.46951919
C       3.20100459      0.42142562      1.89044994
C       1.38499743     -1.21165134      2.54501383
O      -1.27732588      0.43347950     -1.74395104
S      -1.91802145      1.78630470     -2.37023243
O      -3.17704055      2.06611251     -1.71914073
O      -1.75775132      1.74295661     -3.80714376
C      -0.72275533      2.85856213     -1.72932918
C      -0.56319077      4.19306651     -2.06229379
C       0.52301901      4.85964976     -1.50729043
C       1.41221033      4.17546699     -0.66706291
C       1.22244452      2.81874953     -0.36387323
C       0.12833652      2.13778113     -0.89172334
C      -1.83011013     -0.92373748      0.79028980
C      -1.78423815     -2.03620712     -0.27432899
C      -1.15716252     -3.36383677      0.16781154
C      -3.12697783     -2.23845586     -0.98787602
C      -2.58252941     -1.06998850      1.99155623
Br     -3.56928050     -2.64505660      2.45207533
C      -2.65638979     -0.02951040      2.93801359
O      -3.37066896     -0.16466242      4.10376249
H      -3.16367248      2.60407624      3.85930702
H      -1.54779006      3.17618090      3.42701728
H      -1.72280074      1.96995597      4.70580675
H      -0.80678753      2.32291688      1.42475298
H       0.48267735     -0.24881557     -3.08199967
H       1.90772209     -2.93697803     -4.35908813
H       1.59053301     -1.25360723     -4.80376428
H       3.25224097     -1.77113410     -4.53616898
H       3.74315786     -3.35003922     -3.02536665
H       1.18160267      0.59701650      1.49976726
H       3.93321919     -0.29077884      2.27609646
H       3.01737756      1.13497122      2.70277111
H       3.66240958      0.97072268      1.06340856
H       0.45004991     -1.69469566      2.25970436
H       1.20461981     -0.67407856      3.48315680
H       2.10370640     -2.00178829      2.76966383
H      -1.24921304      4.69398100     -2.73818870
H       0.69396112      5.90950062     -1.73587737
H       2.26767522      4.70441158     -0.24958780
H       1.94403551      2.33047122      0.27858423
H      -1.11739018     -1.72681359     -1.07328971
H      -0.21029425     -3.20328892      0.69019775
H      -1.80280149     -3.96270800      0.81014941
H      -0.94142056     -3.98295061     -0.71131896
H      -3.87958754     -2.72032113     -0.36126989
H      -3.53938744     -1.28233201     -1.32842366
H      -2.99360924     -2.87447576     -1.87049558
H      -3.78378693     -1.04700492      4.08789078
