60
CS(=O)(=O)c1ccc(C(CNS(=O)(=O)c2ccc(C(F)(F)F)cc2)N2CCCCCC2)cc1
C      -4.80757423      4.98839132      0.09638800
S      -5.46232225      3.34371594     -0.01690873
O      -6.09506623      3.19522408     -1.31417719
O      -6.19440171      3.06504743      1.20436769
C      -4.00622468      2.32549029     -0.01382715
C      -3.37220859      2.02716896     -1.21917976
C      -2.23746626      1.21371684     -1.21381469
C      -1.73008806      0.68005500     -0.01320344
C      -0.47877046     -0.20610618     -0.05878741
C       0.62749002      0.26220685      0.93959932
N       1.09300243      1.62380897      0.60162754
S       2.51223528      2.17090477      1.30709935
O       2.52842599      3.60446977      1.11901279
O       2.62327588      1.57157146      2.61781485
C       3.74529843      1.47328719      0.23949121
C       4.50810953      0.38545817      0.67186416
C       5.48457088     -0.14804207     -0.17200664
C       5.71404431      0.40857570     -1.44253211
C       6.75887633     -0.18559312     -2.35883068
F       7.28559935      0.71984015     -3.22917126
F       6.25836958     -1.19380634     -3.12460923
F       7.81913798     -0.71504310     -1.68700608
C       4.93689960      1.50281459     -1.85977331
C       3.95914975      2.04044383     -1.01988658
N      -0.74298816     -1.66337457      0.02304544
C      -1.23683363     -2.17256363      1.29812066
C      -0.46028089     -3.43001811      1.70425745
C      -0.78700760     -4.69910138      0.92258252
C      -0.69117849     -4.57343394     -0.59577781
C      -1.78227984     -3.67291825     -1.16584579
C      -1.44543788     -2.17792761     -1.15623039
C      -2.39682944      0.98535983      1.18524891
C      -3.53250311      1.79957412      1.18813264
H      -4.18618029      5.18538595     -0.77981571
H      -4.22435596      5.07834397      1.01545791
H      -5.64769974      5.68653098      0.11988221
H      -3.75575012      2.40965922     -2.16292400
H      -1.75335703      0.98556188     -2.16201728
H      -0.01831366     -0.04183130     -1.04507137
H       1.47324381     -0.43206232      0.87783122
H       0.26338050      0.26873590      1.97130744
H       0.38989646      2.35962487      0.52367331
H       4.35037258     -0.05051268      1.65683490
H       6.07465759     -1.00059790      0.16658063
H       5.09738099      1.94488594     -2.84299550
H       3.37113391      2.89473072     -1.34894922
H      -2.31927444     -2.35057727      1.28572992
H      -1.06664052     -1.45399708      2.10532356
H       0.61786842     -3.23169197      1.63439402
H      -0.65836139     -3.62905025      2.76559547
H      -0.10014462     -5.48921691      1.25106783
H      -1.79373065     -5.03934564      1.19679619
H      -0.82173948     -5.57715025     -1.01952989
H       0.30509202     -4.23135685     -0.89942096
H      -1.96667333     -3.96345846     -2.20821797
H      -2.72645478     -3.84586464     -0.63424347
H      -0.81996807     -1.98019341     -2.03649251
H      -2.38860225     -1.64211758     -1.31547472
H      -2.04936607      0.58947650      2.13625692
H      -4.04143772      2.00689161      2.12749269
