83
CC(=O)C(N=Nc1ccc(S(=O)(=O)[O-])cc1[N+](=O)[O-])C(=O)Nc1ccccc1.CC(=O)C(N=Nc1ccc(S(=O)(=O)[O-])cc1[N+](=O)[O-])C(=O)Nc1ccccc1.[Ca+2]
C       1.54233718     -3.32444730      1.78116114
C       0.45340809     -2.27152638      1.77625471
O      -0.46527111     -2.34177098      2.60343738
C       0.55853385     -1.22779420      0.67795309
N      -0.70115750     -0.46862160      0.60084947
N      -1.23955033     -0.55868184     -0.52437988
C      -2.52666939      0.02312347     -0.55024172
C      -2.77746508      1.30090978     -0.02110001
C      -4.05500644      1.87138886     -0.09112636
C      -5.10403671      1.15992487     -0.68727858
S      -6.74023468      1.92625631     -0.83259879
O      -7.25813434      1.32468395     -2.05896602
O      -6.41853997      3.34926885     -0.92620625
O      -7.37058514      1.48832083      0.40566019
C      -4.89254737     -0.10897646     -1.22290860
C      -3.60499616     -0.64820106     -1.15277978
N      -3.38181811     -1.94993743     -1.73871832
O      -4.06458306     -2.89399935     -1.31788639
O      -2.52515201     -2.03635739     -2.62945655
C       1.68615580     -0.24257891      0.95430102
O       1.78704932      0.34178765      2.03249059
N       2.57325842     -0.11991871     -0.11208487
C       3.80552368      0.57145460     -0.12222310
C       4.33137759      1.25472699      0.97951906
C       5.58073763      1.88155866      0.89910471
C       6.31377601      1.83314628     -0.28560205
C       5.80097738      1.15613430     -1.39095079
C       4.55351423      0.52890755     -1.30693813
C      -0.95803377     -3.10826051     -2.23677303
C      -0.76565860     -1.84770575     -3.04416085
O      -0.43641401     -1.91492768     -4.23291669
C      -0.87421647     -0.51113584     -2.33757039
N       0.24237578     -0.39384388     -1.37304825
N       1.31598588     -0.03626077     -1.89965595
C       2.29662884      0.24714293     -0.92263446
C       2.88217836      1.52135129     -0.95964476
C       3.85418076      1.88899411     -0.02681898
C       4.26578354      0.97549716      0.95215190
S       5.51471133      1.49346047      2.15239113
O       5.07668061      2.84799457      2.47774257
O       5.36022880      0.51499713      3.22238679
O       6.72680722      1.39032451      1.34524429
C       3.71591677     -0.30151372      1.01878985
C       2.74658291     -0.64217388      0.07255750
N       2.18657260     -1.96920842      0.12886337
O       2.64064452     -2.81291204     -0.65612580
O       1.27317134     -2.15977975      0.94428696
C      -2.19626865     -0.33945205     -1.58983014
O      -3.26418231     -0.65082009     -2.11904253
N      -2.05284992      0.20767038     -0.32360100
C      -3.05240450      0.55810729      0.60182525
C      -2.62372313      1.04934568      1.84155448
C      -3.55011492      1.43605908      2.80922172
C      -4.91305946      1.33936338      2.54503060
C      -5.35203168      0.84451690      1.31801818
C      -4.42236822      0.45372772      0.34782546
Ca      0.00000000      0.00000000      0.00000000
H       2.52680614     -2.85631722      1.77662855
H       1.42317600     -3.96903906      0.90008503
H       1.46044605     -3.93220419      2.68884910
H       0.74196479     -1.77665541     -0.25738607
H      -1.97184009      1.86857004      0.43800704
H      -4.23978398      2.86553349      0.31281509
H      -5.71658502     -0.64579152     -1.69342170
H       2.31485974     -0.55363788     -0.98982045
H       3.79440660      1.32833844      1.92457665
H       5.97190518      2.41477554      1.76231004
H       7.28592688      2.31848689     -0.34270481
H       6.37054826      1.11327144     -2.31635635
H       4.17726764      0.00588811     -2.18405289
H      -0.03292802     -3.34195110     -1.69774909
H      -1.19598343     -3.93422660     -2.91272475
H      -1.78506473     -2.99935933     -1.52744580
H      -0.83137630      0.28940753     -3.08332594
H       2.58005817      2.24058765     -1.71877107
H       4.30046301      2.88226369     -0.05005084
H       4.04055702     -0.99664360      1.79375749
H      -1.09277908      0.34877488     -0.01735523
H      -1.56701393      1.13541811      2.07416709
H      -3.20184963      1.80861008      3.76807236
H      -5.63621754      1.64261879      3.29888188
H      -6.41559475      0.76495476      1.10656220
H      -4.79939442      0.07898693     -0.59581889
