40
Cc1c(Cl)cc(N=Nc2c([O-])c(C(=O)[O-])cc3ccccc23)cc1S(=O)(=O)O.[Sr+2]
C       5.57070719     -0.08776598     -0.87893301
C       4.13313267     -0.24134423     -0.53955652
C       3.27373211     -0.71123991     -1.51055472
Cl      3.86069599     -1.12046168     -3.11436586
C       1.91853784     -0.86824093     -1.22861163
C       1.48447450     -0.53947295      0.03856701
N       0.10212748     -0.70040362      0.32371866
N      -0.71927514     -0.42380174     -0.60019074
C      -2.11453212     -0.59038249     -0.30020001
C      -2.72738288     -1.82714150     -0.31527816
O      -1.92620475     -2.93629600     -0.63957785
C      -4.06150140     -2.00095307     -0.03026808
C      -4.66115392     -3.32075725     -0.05888062
O      -5.87416911     -3.49333102      0.19843824
O      -3.88147542     -4.40355069     -0.37494305
C      -4.79053841     -0.87505950      0.27955178
C      -4.21550210      0.37973109      0.30560684
C      -4.96076329      1.50993793      0.61969645
C      -4.35613911      2.74932151      0.63699203
C      -3.01563485      2.87463856      0.34439437
C      -2.27283162      1.77472211      0.03469100
C      -2.87442905      0.52198639      0.01501381
C       2.35300987     -0.06383274      1.02221249
C       3.70442219      0.08534121      0.71812192
S       4.86904763      0.67061184      1.87406729
O       5.86457464     -0.40072841      2.24655589
O       4.11245644      1.01558459      3.14699364
O       5.62645192      2.07315833      1.36463694
Sr      0.00000000      0.00000000      0.00000000
H       5.62458677      0.70051693     -1.66415657
H       6.19694863      0.12069108     -0.01185604
H       5.91880711     -1.02744910     -1.37467200
H       1.25336527     -1.23721217     -1.99652744
H      -5.84031213     -0.95729245      0.51069648
H      -6.00787720      1.36828039      0.84273224
H      -4.93094543      3.63654823      0.88119763
H      -2.53201936      3.85240492      0.35650287
H      -1.21564176      1.83502966     -0.20093059
H       1.99951814      0.19096758      2.01399413
H       5.11173265      2.46724507      0.62014715
