79
COc1ccc(CCC(=O)c2c(O)cc(O[C@@H]3O[C@H](CO)[C@@H](O)[C@H](O)[C@H]3O[C@@H]3O[C@@H](C)[C@H](O)[C@@H](O)[C@H]3O)cc2O)cc1O
C       6.99707858      2.97882097     -4.26417999
O       6.35445576      3.76333316     -3.26696569
C       6.18743894      3.19564026     -2.03024531
C       6.51248513      1.87783053     -1.70062811
C       6.30348984      1.39864506     -0.40183077
C       5.76954741      2.22860049      0.58987743
C       5.52167191      1.70300824      1.98441271
C       4.09363559      1.18215289      2.16805601
C       3.89841490     -0.21067522      1.59187344
O       4.84832614     -0.98525827      1.43111119
C       2.53925046     -0.68449419      1.18432269
C       2.44939344     -1.77242406      0.29135476
O       3.54407263     -2.45143690     -0.18238562
C       1.21679666     -2.22616800     -0.17811407
C       0.04836369     -1.62454788      0.26872488
O      -1.13409639     -2.04545074     -0.27081370
C      -2.03224630     -2.62263785      0.69314069
O      -2.06193195     -4.04039382      0.47140587
C      -2.96797432     -4.72270435      1.35172563
C      -2.79491746     -6.22403739      1.10508655
O      -1.44054378     -6.59938155      1.34648145
C      -4.40374857     -4.26060038      1.07762451
O      -5.35393149     -4.86355213      1.95893762
C      -4.48274285     -2.74401584      1.28166833
O      -5.79583713     -2.28494466      0.89574541
C      -3.42606421     -1.99898426      0.45917865
O      -3.44293829     -0.63052593      0.90765041
C      -3.40739988      0.33603061     -0.14750334
O      -2.56990672      1.40052241      0.31604289
C      -2.98007699      2.72668377     -0.04508126
C      -1.74936179      3.62052103      0.08060698
C      -3.58772805      2.76717688     -1.45151741
O      -3.90037879      4.10271028     -1.85506818
C      -4.86553248      1.91755308     -1.48990079
O      -5.02635534      1.39792700     -2.82363130
C      -4.85288207      0.77747886     -0.46207029
O      -5.67421864     -0.28910621     -0.96794890
C       0.10599381     -0.55847647      1.16329996
C       1.34466452     -0.09597485      1.62356667
O       1.34630087      0.93348935      2.52499260
C       5.43711135      3.55000478      0.26175131
C       5.64525594      4.02164201     -1.03616811
O       5.31578995      5.31576427     -1.34756709
H       6.39306663      2.10000123     -4.51889357
H       8.00784768      2.68886414     -3.95347865
H       7.08872833      3.59398280     -5.16408671
H       6.92955849      1.19217144     -2.43111742
H       6.55803049      0.36421502     -0.17417422
H       6.26727681      0.93665864      2.23202261
H       5.69577019      2.52255617      2.69406549
H       3.39560462      1.88359298      1.70103490
H       3.88094899      1.11732872      3.24187166
H       4.33513936     -2.11665608      0.29985137
H       1.17637378     -3.04608342     -0.88974868
H      -1.70157194     -2.43300365      1.72431296
H      -2.67497873     -4.51452693      2.38919848
H      -3.03018275     -6.48753556      0.06510036
H      -3.43433599     -6.81197144      1.77196744
H      -0.89317852     -5.97413667      0.83150533
H      -4.70623630     -4.49811243      0.04970809
H      -5.51567113     -5.77679967      1.65771018
H      -4.38593176     -2.49146653      2.34626661
H      -6.41439110     -2.84305170      1.41505476
H      -3.69462991     -2.06101398     -0.60480464
H      -2.92876953     -0.08851173     -1.03910164
H      -3.71497664      3.07039160      0.69642869
H      -0.95117395      3.28490306     -0.59167694
H      -1.34373876      3.56715036      1.09658158
H      -1.97923649      4.66767668     -0.14068290
H      -2.85737853      2.37530380     -2.17241500
H      -4.27994488      4.02593529     -2.75285789
H      -5.75239752      2.54046700     -1.31519900
H      -5.51540888      0.55560664     -2.69631913
H      -5.31797673      1.13577857      0.46603645
H      -5.80114488     -0.92182271     -0.22360577
H      -0.81398625     -0.07975965      1.48598132
H       0.44615320      1.30119495      2.59082196
H       5.01582614      4.20186670      1.02165762
H       4.98819239      5.75906138     -0.55075225
