108
Cc1ccc(C(=O)OCCCl)cc1N/N=C1/C(=O)C(C(=O)Nc2cc(C)c(NC(=O)C3=Cc4ccccc4/C(=N/Nc4c(C)cccc4C(=O)OCCCl)C3=O)cc2C)=Cc2ccccc21
C       7.57961313     -0.89529695      1.65366361
C       8.93026406     -0.90105149      0.98323135
C       9.95555097     -1.65528674      1.59457177
C      11.24585833     -1.68382192      1.06572824
C      11.53990079     -0.95141351     -0.08384605
C      12.90544268     -0.91313843     -0.67284552
O      13.17986856     -0.34843944     -1.71925374
O      13.78860235     -1.55684937      0.12676867
C      15.14896373     -1.56954947     -0.34332507
C      15.86137688     -0.25013101     -0.05272907
Cl     16.08186295     -0.01117341      1.70126685
C      10.52556759     -0.21169678     -0.70634116
C       9.20409949     -0.19401291     -0.21052645
N       8.28858733      0.68955372     -0.86594382
N       6.96682243      0.52610723     -0.65299406
C       6.17786897      1.56578444     -0.59929264
C       4.69647955      1.21630867     -0.42206614
O       4.37055144      0.10435175     -0.02041693
C       3.68054055      2.23147089     -0.76825127
C       2.20023301      1.96583806     -0.73885570
O       1.41498659      2.86754253     -1.03258617
N       1.85201625      0.67557037     -0.40797975
C       0.56044521      0.15122760     -0.16901245
C      -0.55919950      0.97737425     -0.01392751
C      -1.83577753      0.45328950      0.26764992
C      -2.97387731      1.42550197      0.43346502
C      -2.00085429     -0.93993503      0.38716592
N      -3.29804076     -1.44871891      0.62630458
C      -3.70039988     -2.75723660      0.79081463
O      -2.96576419     -3.74130872      0.85406576
C      -5.18569618     -2.93417887      0.88102847
C      -5.67715164     -4.17042418      1.08506488
C      -7.11225050     -4.44877768      1.18568330
C      -7.55809113     -5.71341520      1.58678028
C      -8.92772917     -5.98977018      1.64962128
C      -9.86523571     -5.01549519      1.30399971
C      -9.43174726     -3.75702800      0.88866188
C      -8.06078887     -3.47733809      0.83146417
C      -7.57527295     -2.15671728      0.37913050
N      -8.34831750     -1.38191416     -0.32983775
N      -7.82694676     -0.17918163     -0.71461903
C      -8.71110286      0.59558546     -1.51783534
C      -8.91477728      0.24480076     -2.87356053
C      -8.16440760     -0.90238813     -3.49246476
C      -9.83828135      0.96369696     -3.65585384
C     -10.56280421      2.02413301     -3.11139092
C     -10.39065291      2.36291042     -1.77080177
C      -9.47636857      1.64992521     -0.97233668
C      -9.31562882      2.00626584      0.45660599
O      -8.27432685      1.87067208      1.08610894
O     -10.49354267      2.45365105      0.96275863
C     -10.45396265      2.80347945      2.35465918
C     -11.87420348      2.93445800      2.88072540
Cl    -12.70512915      4.34583085      2.15343268
C      -6.14301923     -1.80850477      0.76369208
O      -5.80420375     -0.64835771      0.96727035
C      -0.87973871     -1.76181958      0.24492725
C       0.40042090     -1.23960425     -0.02742121
C       1.54595363     -2.20379341     -0.17966686
C       4.08779093      3.47205740     -1.07365999
C       5.48036105      3.91031070     -0.98406795
C       5.76364295      5.27535154     -1.15087999
C       7.06153253      5.75710851     -0.98389661
C       8.08559354      4.88274763     -0.63861746
C       7.81367533      3.52115974     -0.49293574
C       6.52064923      3.01587980     -0.69494847
H       6.83731982     -1.40991415      1.03097282
H       7.25858702      0.13154435      1.86605519
H       7.60639520     -1.41603137      2.61870721
H       9.75519345     -2.22171218      2.50425032
H      12.01292776     -2.26635870      1.57187710
H      15.65881071     -2.40234022      0.15459884
H      15.17484964     -1.79267988     -1.42029628
H      16.85442801     -0.24206088     -0.51334154
H      15.29191021      0.60702187     -0.41582985
H      10.77884553      0.36996539     -1.59021691
H       8.53601001      0.75397940     -1.85646627
H       2.62143211      0.01320772     -0.29289460
H      -0.45783921      2.05921250     -0.07637026
H      -3.40160864      1.33306495      1.43622246
H      -2.64570503      2.46614566      0.31381083
H      -3.74724427      1.23596653     -0.31797732
H      -4.03275230     -0.74516131      0.68091521
H      -5.00299722     -5.02105768      1.19188599
H      -6.84914666     -6.49941145      1.85163655
H      -9.26508698     -6.97093351      1.97497758
H     -10.93041339     -5.23620741      1.34506163
H     -10.16168279     -2.99719285      0.61316210
H      -7.45991692      0.38915765      0.07257936
H      -8.24864688     -0.89391195     -4.58444579
H      -8.56204157     -1.85645912     -3.13288492
H      -7.09798158     -0.84457449     -3.25361084
H      -9.98956423      0.70121703     -4.70175820
H     -11.26339847      2.57856395     -3.73324109
H     -10.96895164      3.18580791     -1.35452188
H      -9.89733860      3.74283792      2.47563546
H      -9.95475786      2.01470193      2.92845900
H     -12.47720522      2.05214233      2.63983517
H     -11.87178830      3.08717326      3.96311086
H      -0.97024576     -2.83933118      0.33790721
H       1.21572146     -3.24759314     -0.13848745
H       2.26865747     -2.05285149      0.62757498
H       2.04224191     -2.06627838     -1.14540949
H       3.35327278      4.23445558     -1.33459755
H       4.97431955      5.98385486     -1.38724546
H       7.27017837      6.81703994     -1.11103006
H       9.09535061      5.25826616     -0.47743881
H       8.64003019      2.88455803     -0.18642274
