32
CC(=O)NCc1c(I)c(NC(C)=O)c(I)c(C(=O)O)c1I
C       4.08370355      2.96316843      0.51596045
C       3.55083014      2.12036020     -0.61093656
O       3.92850589      2.26147227     -1.76889093
N       2.62243714      1.18215955     -0.22232651
C       2.12563342      0.21691504     -1.17651864
C       0.88149932     -0.47578044     -0.66361520
C      -0.40981189      0.06157027     -0.90683793
I      -0.64506379      1.93326746     -1.96483001
C      -1.58703712     -0.56707624     -0.42571545
N      -2.84033391      0.06626455     -0.65822350
C      -3.65701115      0.44029355      0.40175860
C      -4.89021979      1.18279861     -0.04191114
O      -3.40608965      0.25706655      1.58836093
C      -1.48214486     -1.80284215      0.24252982
I      -3.23069075     -3.00990824      0.58636873
C      -0.21164154     -2.32458459      0.54192643
C      -0.10616532     -3.59445493      1.27458432
O       0.03187293     -4.69771939      0.78641295
O      -0.16582321     -3.37013028      2.59744685
C       0.95938298     -1.65940954      0.11470069
I       2.87458397     -2.45635939      0.69674105
H       3.45418070      2.88708018      1.40700352
H       5.09543251      2.63178686      0.76346331
H       4.10398012      4.01015493      0.20102022
H       2.57353775      0.94805500      0.76097189
H       2.93058240     -0.48951416     -1.40000064
H       1.95518042      0.69913946     -2.14388987
H      -2.83820780      0.75267464     -1.40708487
H      -5.74097711      0.85961572      0.56431798
H      -5.12169346      0.97777681     -1.09114152
H      -4.72929030      2.25603685      0.08800665
H      -0.10914159     -4.25987758      3.00547307
