22
Brc1ccc(-c2ccc(Br)c(Br)c2Br)c(Br)c1Br
Br      5.44307764      0.40427686     -0.04184922
C       3.54651164      0.27663769      0.07150206
C       2.88066732     -0.02908216     -1.11753511
C       1.49278822     -0.14355880     -1.13496074
C       0.73668478      0.04798783      0.03360868
C      -0.73166576     -0.08573667     -0.05874847
C      -1.29300711     -1.35911594      0.13448106
C      -2.67025024     -1.55359408      0.06379650
C      -3.51970945     -0.47823304     -0.20571965
Br     -5.37987856     -0.87963544     -0.27463423
C      -2.99340872      0.80853633     -0.41012744
Br     -4.16963817      2.27185108     -0.78367853
C      -1.59572740      1.00199104     -0.33782306
Br     -0.82250709      2.73723927     -0.61668651
C       1.41568541      0.35221476      1.23944457
Br      0.37914476      0.59755621      2.83697723
C       2.82351812      0.46931424      1.26091614
Br      3.75022232      0.88282354      2.88405259
H       3.43485716     -0.17820300     -2.04229192
H       0.99632398     -0.37776566     -2.07630246
H      -0.65185941     -2.21315647      0.35127120
H      -3.07182944     -2.55234758      0.22430732
