110
CC(C)(C)c1cc(CCC(=O)NCCCCCCNC(=O)CCc2cc(C(C)(C)C)c(O)c(C(C)(C)C)c2)cc(C(C)(C)C)c1O
C       6.86521816     -3.33940727      2.66075346
C       8.14450693     -2.86386854      1.91082376
C       9.03393536     -2.23780027      3.01243309
C       8.79643182     -4.14382183      1.34134540
C       7.85420267     -1.85879177      0.76419947
C       6.52474635     -1.64667362      0.34949164
C       6.18389751     -0.73190909     -0.65409305
C       4.73514959     -0.51116418     -1.02503829
C       4.14658642      0.66757633     -0.25536808
C       2.67564825      0.85942235     -0.55728753
O       2.01825876      0.10602339     -1.26599554
N       2.14617170      1.97161108      0.06533374
C       0.76950399      2.37144079     -0.13687139
C       0.58769678      3.13587137     -1.44572355
C      -0.80328917      3.75759211     -1.59767379
C      -1.92593898      2.71958301     -1.68209117
C      -3.28061117      3.32088920     -2.07678299
C      -3.82670780      4.35911270     -1.09492119
N      -4.11412254      3.78442933      0.20294551
C      -5.38465491      3.38915213      0.56876119
O      -6.37368696      3.56389890     -0.13420184
C      -5.42128041      2.75963846      1.95091675
C      -6.77777592      2.16180608      2.32081471
C      -7.04308801      0.83190140      1.65243280
C      -7.81756779      0.77227119      0.48884988
C      -8.07667706     -0.43346865     -0.18911955
C      -8.88931937     -0.40105590     -1.50845129
C     -10.33689217     -0.86441204     -1.23715010
C      -8.99722582      1.01765783     -2.13600793
C      -8.24349119     -1.27549683     -2.60945566
C      -7.54655987     -1.60892773      0.40242321
O      -7.81924464     -2.83740502     -0.13650469
C      -6.73580973     -1.59808964      1.56948698
C      -6.13482494     -2.89086431      2.17984815
C      -5.23760704     -3.62192422      1.15113013
C      -7.26624291     -3.82860418      2.66129221
C      -5.23128953     -2.63733245      3.41621750
C      -6.50382408     -0.34804243      2.17204491
C       7.19342696      0.00641457     -1.27542526
C       8.54635688     -0.15201497     -0.93177846
C       9.64378998      0.68023450     -1.64817474
C      10.42794679      1.54299370     -0.63240198
C      10.61784286     -0.24356328     -2.41227490
C       9.08325709      1.67562549     -2.69768956
C       8.84504448     -1.10538269      0.08043828
O      10.17393396     -1.26417014      0.36480411
H       6.19817667     -3.91286357      2.00690260
H       7.11962479     -4.00260589      3.49735800
H       6.30145727     -2.49555348      3.07692305
H       9.15846388     -2.92951712      3.85795183
H       8.58156789     -1.31501684      3.40250568
H      10.04388933     -1.98751739      2.67877142
H       8.94247462     -4.89317734      2.12985554
H       9.77526198     -3.97028232      0.88807781
H       8.16086783     -4.59561882      0.57023404
H       5.70267540     -2.19139886      0.80417538
H       4.65422624     -0.33999047     -2.10554507
H       4.16055364     -1.42316295     -0.82402981
H       4.67734980      1.59325398     -0.50951656
H       4.25029566      0.50852027      0.82480244
H       2.77377986      2.61637981      0.52713825
H       0.14172660      1.47641036     -0.11851654
H       0.49636595      2.99993188      0.71669197
H       0.79478945      2.47571798     -2.29633753
H       1.33117214      3.94172747     -1.49415955
H      -0.80545000      4.36984711     -2.50732010
H      -0.98230034      4.43668308     -0.75720798
H      -1.65920395      1.96420355     -2.43115429
H      -2.02485775      2.19033545     -0.72850113
H      -4.00596407      2.50345130     -2.18288098
H      -3.18451729      3.79022949     -3.06387407
H      -4.74151123      4.79791598     -1.50829456
H      -3.11761738      5.17879205     -0.94333084
H      -3.33978007      3.58857999      0.82382624
H      -4.62846819      2.00638525      2.02124610
H      -5.19024134      3.56006175      2.66438895
H      -7.59058914      2.86276696      2.09185029
H      -6.81583475      2.00950030      3.40779345
H      -8.20343744      1.71717973      0.11284790
H     -10.39827038     -1.91143373     -0.93300442
H     -10.95940295     -0.75576776     -2.13197008
H     -10.79357356     -0.27184194     -0.43806603
H      -8.00934931      1.46156936     -2.29810316
H      -9.50424893      0.98608544     -3.10759680
H      -9.58374998      1.70319491     -1.51246084
H      -8.33325547     -2.34910651     -2.41759345
H      -7.17655965     -1.03905744     -2.72504350
H      -8.73031037     -1.11059729     -3.58081534
H      -8.74198715     -2.82963828     -0.43484259
H      -5.79655907     -4.00812115      0.29372060
H      -4.45784490     -2.95325547      0.76400296
H      -4.73835811     -4.48577610      1.60730154
H      -6.85663834     -4.71052837      3.16939749
H      -7.92594584     -3.31190248      3.36811609
H      -7.88817928     -4.19950032      1.84225519
H      -5.78797244     -2.17220115      4.23756802
H      -4.37855753     -1.99261772      3.16961720
H      -4.81948550     -3.57575768      3.80636837
H      -5.90464116     -0.26791588      3.07445333
H       6.89143213      0.70940943     -2.04672729
H      10.99801071      0.94832534      0.08611693
H       9.75126425      2.19023823     -0.06068906
H      11.15524072      2.18898217     -1.14246036
H      11.34427418      0.33948396     -2.99129484
H      11.20116497     -0.89065628     -1.75097344
H      10.07889368     -0.89436448     -3.11248164
H       8.54922383      1.15910302     -3.50389520
H       9.88990988      2.25123871     -3.16916579
H       8.40073533      2.40389185     -2.24334792
H      10.32397292     -2.15360593      0.71660426
