74
CC(C)(C)NC(=O)C1N(C(=O)C(O)C(Cc2ccccc2)NC(=O)COc2ccccc2)CSC1(C)C
C      -2.95237561      1.90461018     -2.52828349
C      -3.87954255      0.94802988     -1.75689789
C      -3.94309755     -0.38953222     -2.50962405
C      -5.27646586      1.58633591     -1.68755237
N      -3.31104817      0.76010132     -0.41570087
C      -3.87139059     -0.00938884      0.58378856
O      -4.98498688     -0.52275559      0.49785807
C      -3.03991310     -0.10281853      1.89205618
N      -1.62043406      0.24678181      1.66350116
C      -0.74852969     -0.70157789      1.15278660
O      -1.12552914     -1.85410566      0.93323720
C       0.71302535     -0.26565063      0.89560306
O       0.80964405      0.95283815      0.15188946
C       1.51834552     -1.38036860      0.17093825
C       1.02697556     -1.57178846     -1.28693487
C       1.65811063     -2.76340590     -1.97377926
C       1.32864293     -4.06507066     -1.57100854
C       1.90830784     -5.16823223     -2.19964186
C       2.81785722     -4.98160986     -3.23860264
C       3.14777795     -3.69176166     -3.65141276
C       2.56955268     -2.58656869     -3.02409770
N       2.95268178     -1.03914010      0.16562120
C       3.72265406     -1.04157874      1.30958261
O       3.26779143     -1.26152695      2.42770184
C       5.20259487     -0.72916232      1.06622038
O       5.44058886      0.17754000     -0.00623335
C       5.00110625      1.46564761      0.14336229
C       5.03062647      2.23015216     -1.02609405
C       4.58263963      3.55329605     -1.02213970
C       4.10491615      4.12101491      0.15671360
C       4.08416510      3.36817638      1.32968252
C       4.53519168      2.04398861      1.32648121
C      -1.25544146      1.60788453      2.00828190
S      -2.64925399      2.35473163      2.87067239
C      -3.57164918      0.78397775      3.04138716
C      -3.19522757      0.16329815      4.39835063
C      -5.07279667      1.07829922      3.02187460
H      -2.86353027      2.86757767     -2.01276614
H      -3.32583113      2.09611679     -3.54028530
H      -1.94113240      1.48928476     -2.61564348
H      -4.63226772     -1.09322698     -2.03034010
H      -2.95722997     -0.86975655     -2.53933282
H      -4.28315085     -0.24775464     -3.54163201
H      -5.25881323      2.50770158     -1.09337197
H      -5.64593983      1.83813088     -2.68783450
H      -6.01332145      0.91836574     -1.23112130
H      -2.31532467      0.91721680     -0.32064043
H      -3.09132755     -1.16225027      2.17675907
H       1.14362217     -0.07254628      1.88417118
H       1.76844055      1.12621992      0.05417419
H       1.42050088     -2.31638433      0.73476398
H      -0.06010515     -1.70561349     -1.32911628
H       1.23871334     -0.66746414     -1.87238607
H       0.61128867     -4.22815945     -0.76785955
H       1.64438601     -6.17358010     -1.87992117
H       3.26454248     -5.84169186     -3.73162962
H       3.85055662     -3.54761629     -4.46799344
H       2.83077140     -1.58927168     -3.37004168
H       3.45340299     -1.04886897     -0.71823429
H       5.67636159     -0.37684879      1.98979891
H       5.68662590     -1.67706164      0.80289795
H       5.40581632      1.79456256     -1.94946518
H       4.61237978      4.14150712     -1.93632163
H       3.76101489      5.15356725      0.16413966
H       3.72553662      3.81612817      2.25407958
H       4.51600873      1.50459542      2.26868220
H      -1.05902026      2.18022656      1.09817160
H      -0.36441601      1.60989329      2.64253297
H      -3.71550236     -0.79088119      4.53769494
H      -2.12120320     -0.03953346      4.48151898
H      -3.47896943      0.81249430      5.23463967
H      -5.64945003      0.14788332      3.09550745
H      -5.38935229      1.59880413      2.10959447
H      -5.36959507      1.70757314      3.87128519
