81
O=C1C=Cc2ccccc2/C1=N/Nc1ccc2ccccc2c1S(=O)(=O)[O-].O=C1C=Cc2ccccc2/C1=N/Nc1ccc2ccccc2c1S(=O)(=O)[O-].[Ca+2]
O       1.69707223     -2.88461475     -1.04540407
C       2.49021662     -1.96412284     -0.95850741
C       3.78958628     -2.05168795     -1.66241993
C       4.82223553     -1.28545819     -1.29534544
C       4.71665831     -0.33487908     -0.18672775
C       5.86223568      0.32048619      0.28357335
C       5.77132046      1.24392324      1.32898486
C       4.53594526      1.52589603      1.90991477
C       3.38737956      0.88574818      1.44621400
C       3.47854286     -0.04581625      0.40363660
C       2.25659271     -0.71327645     -0.11469333
N       1.09911812     -0.16955045      0.12788245
N      -0.01599432     -0.78650153     -0.35471302
C      -1.23795630     -0.06299351     -0.25259898
C      -1.19306039      1.33522411     -0.38467002
C      -2.34979570      2.11230690     -0.39171474
C      -3.61124147      1.52115313     -0.29275019
C      -4.75590161      2.33881565     -0.32264341
C      -6.03411265      1.79377351     -0.24093220
C      -6.18139236      0.42099629     -0.13154579
C      -5.04964643     -0.39925274     -0.09942115
C      -3.72596583      0.11397240     -0.17067281
C      -2.51329677     -0.66351073     -0.14064994
S      -2.65119783     -2.46536549      0.12640282
O      -1.27021749     -2.91666234      0.28772050
O      -3.45104739     -2.56175781      1.34609747
O      -3.30754276     -2.91817722     -1.09753040
O       2.02501476     -2.02607682     -2.55116879
C       2.42674811     -1.06826507     -1.90894783
C       3.32563282     -0.05852880     -2.50359293
C       4.24191229      0.53316936     -1.72547679
C       4.36237942      0.21121505     -0.29653844
C       5.47015198      0.65016227      0.43684288
C       5.56158190      0.38002442      1.80620572
C       4.54344875     -0.31852039      2.45745864
C       3.42984359     -0.75505264      1.74160605
C       3.34998420     -0.49969706      0.36916253
C       2.16781384     -0.91641043     -0.41614815
N       1.01672747     -1.08294578      0.17075823
N      -0.06780149     -1.26226320     -0.64821410
C      -1.31233691     -0.86339659     -0.08573893
C      -1.65592736     -1.37839357      1.17174012
C      -2.86311912     -1.05151663      1.78434057
C      -3.77454710     -0.19186850      1.16233941
C      -4.98526834      0.10989547      1.81161847
C      -5.92159622      0.96241430      1.23290927
C      -5.65594492      1.52425026     -0.00534435
C      -4.45598847      1.23164938     -0.65983057
C      -3.47362394      0.36800788     -0.10592741
C      -2.21967007      0.01974904     -0.71502324
S      -1.77804208      0.79760084     -2.31114537
O      -2.82325742      0.31311856     -3.20803104
O      -0.43872675      0.28825916     -2.61483967
O      -1.81419998      2.22534888     -2.00491572
Ca      0.00000000      0.00000000      0.00000000
H       3.85864046     -2.79851838     -2.44320200
H       5.77610622     -1.38212510     -1.80389814
H       6.83611119      0.11934019     -0.15661632
H       6.66583016      1.74538551      1.69015330
H       4.46266638      2.24448038      2.72237435
H       2.42253064      1.10883130      1.89895473
H      -0.15359212     -1.79746391     -0.11631279
H      -0.23140542      1.82909024     -0.49840138
H      -2.24715448      3.18914033     -0.49351076
H      -4.65540610      3.41765745     -0.41366315
H      -6.90750481      2.43713857     -0.26577152
H      -7.16796182     -0.02861268     -0.07099139
H      -5.21739461     -1.47301222     -0.01978647
H       3.22915389      0.11731713     -3.56599757
H       4.92665016      1.25961364     -2.14980738
H       6.26710560      1.21066998     -0.04606278
H       6.42449335      0.72691184      2.36926447
H       4.61090931     -0.51431184      3.52442441
H       2.62575219     -1.28442670      2.24777997
H       0.00536575     -0.86825360     -1.61183378
H      -0.96608521     -2.05481609      1.67014078
H      -3.08190877     -1.48307118      2.75730811
H      -5.20682839     -0.32327237      2.78392598
H      -6.85139746      1.18510045      1.74633027
H      -6.37124471      2.19141846     -0.47713092
H      -4.29315470      1.69519092     -1.63244013
