73
CCC(=O)OCC(=O)C1(OC(=O)CC)C(C)CC2C3CCC4=CC(=O)C=CC4(C)C3(F)C(O)CC21C
C      -6.27575481      3.15050827      2.92615212
C      -5.19107225      2.29873049      3.55381133
C      -4.89451360      1.10016827      2.69009691
O      -5.69282598      0.20453575      2.45300434
O      -3.63122021      1.16565094      2.19221048
C      -3.28297288      0.05724311      1.36061520
C      -1.85309317      0.21658816      0.84241202
O      -1.03429337      0.89945087      1.46432644
C      -1.54019620     -0.38895298     -0.57510018
O      -2.41649513     -1.48948711     -0.90378199
C      -2.42254435     -2.58838140     -0.10118865
O      -1.78700456     -2.68634123      0.93598677
C      -3.36837401     -3.62641113     -0.65189121
C      -3.04023187     -5.01269615     -0.12518659
C      -1.88828032      0.79364206     -1.54670080
C      -2.34114133      0.42049263     -2.96031112
C      -0.60696905      1.62800514     -1.55722620
C       0.53288908      0.60465547     -1.57546911
C       1.91145065      1.13150346     -1.09039631
C       1.92799643      2.01603017      0.17162141
C       3.33412364      2.52934744      0.50758299
C       4.36284046      1.42623625      0.54088357
C       5.18156134      1.27699107      1.59797768
C       6.16152999      0.17078104      1.67624597
O       6.93549902      0.07288581      2.62145469
C       6.17667551     -0.80954155      0.57064073
C       5.36026007     -0.66988187     -0.48269903
C       4.37886532      0.48394708     -0.66428997
C       4.93537286      1.26939037     -1.88170857
C       2.91959058     -0.03922147     -0.95421508
F       2.96717901     -0.63326155     -2.20432135
C       2.38565440     -1.14682709      0.01819964
O       3.02452768     -1.14415503      1.29702942
C       0.86766244     -1.11614540      0.28594032
C      -0.00875656     -0.70370695     -0.91172062
C       0.09858861     -1.87539404     -1.93686292
H      -7.19728790      2.57687979      2.79159437
H      -6.49781095      4.01424136      3.55922274
H      -5.96600367      3.51451023      1.94037099
H      -4.28140014      2.89318933      3.69264606
H      -5.49241127      1.93932982      4.54293596
H      -3.97231828      0.02613330      0.51062714
H      -3.33872982     -0.86659626      1.94315087
H      -4.38923282     -3.34726800     -0.36438848
H      -3.29688527     -3.63126751     -1.74609806
H      -3.71221230     -5.75699696     -0.56340453
H      -2.00911036     -5.29113807     -0.36793918
H      -3.15171511     -5.05564447      0.96291215
H      -2.69982011      1.40675642     -1.13188279
H      -2.61787229      1.32674799     -3.51095355
H      -1.56109643     -0.07262458     -3.54271251
H      -3.22307733     -0.22653491     -2.93795826
H      -0.55270994      2.30525288     -2.41659916
H      -0.58746333      2.25213985     -0.66039469
H       0.68607354      0.37409297     -2.64229105
H       2.24659665      1.77612403     -1.91365134
H       1.53643071      1.48084424      1.03926086
H       1.29002080      2.89414050      0.03080291
H       3.63360876      3.27640585     -0.23653368
H       3.29124416      3.05840537      1.46753168
H       5.16145662      1.93854138      2.45592557
H       6.87069795     -1.63451703      0.66718896
H       5.39559996     -1.41515182     -1.27488887
H       4.95953348      0.64552783     -2.78319177
H       5.96181248      1.61288129     -1.69794653
H       4.34854796      2.15978225     -2.12451464
H       2.63031579     -2.11443720     -0.43748868
H       2.67768032     -1.89789133      1.80849418
H       0.70136226     -0.47494445      1.15037029
H       0.57817689     -2.10921294      0.65028070
H       1.10081887     -1.95976628     -2.36380870
H      -0.12134581     -2.84093094     -1.46994788
H      -0.58800152     -1.76338282     -2.77699612
