36
BrC1CC(Br)CC(Br)CC(Br)CC(Br)CC(Br)C1
Br     -3.01167918     -2.99744798      1.44976126
C      -2.56665785     -1.56172582      0.18243934
C      -2.18049712     -0.31297060      0.99774667
C      -1.59026206      0.84877470      0.19014106
Br     -2.96321578      1.61933888     -0.97580528
C      -1.01743533      1.95444678      1.09240763
C       0.15368242      2.69724211      0.41962227
Br     -0.00504968      4.61919907      0.84987939
C       1.54806646      2.24585484      0.89602062
C       1.88072603      0.76553736      0.64772274
Br      3.52134239      0.35328967      1.66611281
C       2.12783193      0.42672638     -0.82833302
C       2.19592126     -1.08570307     -1.15588793
Br      3.43444646     -1.27689357     -2.69937248
C       0.85424581     -1.70413986     -1.60251347
C      -0.07903411     -2.09449263     -0.44475418
Br      0.43148544     -3.88072097      0.19045175
C      -1.56092330     -2.08055956     -0.86460699
H      -3.52241898     -1.38200618     -0.32347590
H      -3.06110856      0.03392260      1.55629533
H      -1.45077658     -0.60462055      1.76498675
H      -0.82433018      0.49429580     -0.49839416
H      -1.82315913      2.63892577      1.38586961
H      -0.65468185      1.51905570      2.03239211
H       0.08318890      2.67588099     -0.67205692
H       1.62836298      2.45571617      1.97233473
H       2.31566035      2.87123470      0.41880441
H       1.12716132      0.12922288      1.10753229
H       1.34621224      0.88200433     -1.44754526
H       3.05734130      0.92691014     -1.13294126
H       2.67475909     -1.67270478     -0.36823159
H       1.02499492     -2.58512648     -2.23576031
H       0.35723352     -0.97585166     -2.25658547
H       0.09429993     -1.46838600      0.42398866
H      -1.87441561     -3.06476188     -1.23602801
H      -1.67131743     -1.40946729     -1.72640887
