123
CO[C@H]1/C=C/O[C@@]2(C)Oc3c(C)c(O)c4c(c3C2=O)C2=NC3(CCN(CC(C)C)CC3)NC2=C(NC(=O)/C(C)=C\C=C\[C@H](C)[C@H](O)[C@@H](C)[C@@H](O)[C@@H](C)[C@H](OC(C)=O)[C@@H]1C)C4=O
C      -4.70535618      4.44722719     -2.81122793
O      -5.14197790      4.08953671     -1.50349687
C      -4.05644110      3.71961174     -0.64473125
C      -3.64758257      4.97605284      0.08366629
C      -2.39821623      5.40118527      0.28942774
O      -1.28791704      4.72533848     -0.14326591
C      -0.24750498      4.63161656      0.84327353
C       0.56960860      5.91053998      0.94870967
O      -0.76586543      4.25282718      2.14449091
C      -0.36207324      2.96060266      2.35410549
C      -0.85706934      2.18817160      3.39524489
C      -1.89004573      2.73130443      4.34141683
C      -0.41810822      0.86061721      3.46038603
O      -0.93712490      0.06673909      4.44617670
C       0.56748254      0.35438777      2.57488944
C       1.12634835      1.20589518      1.60950947
C       0.58103380      2.47289813      1.46629480
C       0.67345529      3.48453360      0.43305229
O       1.29206904      3.40092352     -0.61370475
C       2.27680792      0.73638487      0.85257385
N       3.10358012      1.47760672      0.16660932
C       4.09755679      0.51381937     -0.40019520
C       4.16988166      0.68510855     -1.91936674
C       5.35708538     -0.07228620     -2.52280823
N       6.60746059      0.27786736     -1.85236367
C       7.81858708     -0.19385242     -2.53032060
C       7.91678201     -1.66213245     -3.01370025
C       9.21955010     -1.84735666     -3.80606731
C       7.87045161     -2.69203447     -1.88526001
C       6.57941144      0.01772629     -0.41597364
C       5.45410568      0.80784930      0.24677141
N       3.64720639     -0.84626096     -0.03662391
C       2.58726873     -0.70263291      0.83393672
C       1.93345026     -1.59691094      1.57841330
N       2.16152590     -2.93952161      1.34531514
C       1.85750695     -4.00309036      2.15181597
O       1.79249406     -3.98118270      3.37133752
C       1.80737161     -5.31014897      1.41841490
C       2.52627390     -6.41476441      2.14043774
C       1.18236346     -5.52969718      0.24618724
C       0.45552485     -4.64349597     -0.63743259
C      -0.67062546     -3.94555920     -0.42259570
C      -1.48836176     -3.79824170      0.84862881
C      -2.63490789     -4.80894644      0.86977226
C      -1.93566432     -2.32024735      1.06715370
O      -2.30828052     -2.10948833      2.43288063
C      -3.04639284     -1.74112927      0.13049604
C      -4.44787164     -1.96013085      0.71140180
C      -2.76508239     -0.22124239     -0.14305291
O      -1.42775698     -0.09936116     -0.68199146
C      -3.70823702      0.54935026     -1.12102211
C      -4.14517774     -0.29733672     -2.32607098
C      -4.89609738      1.24337087     -0.38801942
O      -5.96248549      1.48551629     -1.33564500
C      -7.19949604      1.01537758     -1.02991384
C      -8.17627093      1.35454715     -2.11800073
O      -7.49888998      0.39664486     -0.01615050
C      -4.50668865      2.58469573      0.32589550
C      -5.68161352      3.03510970      1.21888052
C       0.89575112     -1.10692952      2.54959436
O       0.21122592     -1.89147098      3.20088895
H      -3.97312350      5.25935860     -2.77007815
H      -4.27318733      3.57699534     -3.31709773
H      -5.57174923      4.78603514     -3.38452051
H      -3.21601875      3.35965256     -1.24790498
H      -4.46489126      5.59588252      0.45005657
H      -2.18797053      6.33325262      0.80043501
H       1.45489367      5.76570410      1.57975264
H       0.89903543      6.25589487     -0.03478867
H      -0.01018049      6.71871942      1.40442935
H      -1.74598608      2.34249509      5.35317126
H      -2.89357930      2.46121427      4.00040006
H      -1.83170769      3.82175189      4.42001511
H      -1.90741154      0.01776253      4.33326624
H       4.26224529      1.75406104     -2.16742697
H       3.23907767      0.33677753     -2.38878324
H       5.42047252      0.19093718     -3.58280397
H       5.16761387     -1.14630583     -2.46467261
H       8.69693738      0.03557367     -1.90956273
H       7.94337491      0.44746341     -3.41320473
H       7.09118501     -1.87534620     -3.70794520
H      10.09839767     -1.66767108     -3.17560554
H       9.28907991     -2.86011432     -4.21241143
H       9.25984716     -1.14937761     -4.65175111
H       8.09381500     -3.69715995     -2.26103632
H       8.59673862     -2.45914725     -1.10022991
H       6.87314980     -2.74310884     -1.44028986
H       7.52103287      0.33185627      0.04960353
H       6.45548633     -1.04556930     -0.19321024
H       5.67526090      1.88022252      0.17514838
H       5.43004128      0.57009014      1.31903740
H       3.41912261     -1.42888456     -0.83655850
H       2.61993331     -3.16153289      0.47153974
H       3.57877646     -6.14923268      2.28019979
H       2.07516857     -6.60299576      3.12008723
H       2.50059121     -7.35663422      1.58077033
H       1.25298681     -6.53602960     -0.17188448
H       0.84992924     -4.64522514     -1.65935190
H      -1.08880336     -3.44297853     -1.28928345
H      -0.85545548     -4.06391599      1.70024965
H      -2.24889784     -5.83444634      0.77323643
H      -3.16635477     -4.75671901      1.82240151
H      -3.34781850     -4.64896513      0.06135308
H      -1.03257523     -1.72498309      0.91353498
H      -1.48811904     -2.25558802      2.96371741
H      -2.97506115     -2.26499093     -0.82908569
H      -5.22379916     -1.74890756     -0.02611061
H      -4.60485552     -2.99438036      1.02902241
H      -4.62780129     -1.31161441      1.57506278
H      -2.73377013      0.30170174      0.81644553
H      -1.45015727     -0.38221986     -1.61424395
H      -3.10327154      1.34008921     -1.57288627
H      -4.88911998     -1.05095870     -2.05940974
H      -4.58326674      0.33582363     -3.10617243
H      -3.29263131     -0.80973091     -2.78562815
H      -5.24531447      0.55865150      0.39210064
H      -7.66177644      1.78355234     -2.98562023
H      -8.90020740      2.07631145     -1.73590153
H      -8.68164529      0.43955086     -2.44179750
H      -3.66524268      2.37198786      1.00059066
H      -5.38521520      3.84296730      1.89491323
H      -6.02679069      2.21015689      1.84835995
H      -6.53447503      3.38670866      0.62930920
