101
CCCCCCCCCCCCCCCCCCNC(=O)CCc1cc(C(C)(C)C)c(O)c(C(C)(C)C)c1
C      12.98764336      1.16087620      0.09215417
C      12.39024742      0.18795383     -0.91283253
C      10.91483100      0.45799220     -1.21985921
C      10.68435111      1.78967459     -1.93970302
C       9.23938151      1.97572164     -2.41525085
C       8.23726679      2.08628810     -1.26368147
C       6.82847331      2.47402860     -1.72355018
C       6.15772375      1.49987920     -2.69730530
C       6.04586166      0.04925578     -2.21791358
C       5.25319642     -0.10199410     -0.91714718
C       5.05737493     -1.57717241     -0.55687006
C       4.41430816     -1.79085997      0.81776865
C       2.98064213     -1.26258509      0.90704367
C       2.34265729     -1.47187205      2.28445240
C       2.15939761     -2.92899693      2.72082360
C       1.34008180     -3.80899005      1.77106947
C      -0.05388942     -3.28412593      1.41769218
C      -0.96054488     -3.09184960      2.63229668
N      -2.28835199     -2.66242220      2.24124687
C      -2.55886022     -1.34692462      1.92513043
O      -1.73058552     -0.44770008      2.01009287
C      -3.98976208     -1.13070515      1.48054147
C      -4.21320600      0.29623420      0.98624776
C      -5.64905904      0.52039330      0.57352491
C      -6.09974225      0.08634235     -0.67681539
C      -7.42972680      0.26864755     -1.08993691
C      -7.89978529     -0.21850684     -2.48333691
C      -6.79470397     -0.94695589     -3.29366715
C      -9.05740229     -1.23307873     -2.34085957
C      -8.34892981      0.97687838     -3.35316343
C      -8.29620417      0.92221628     -0.17710562
O      -9.57083848      1.16887129     -0.60860709
C      -7.90153012      1.33748134      1.11949712
C      -8.85768112      1.98462715      2.15402467
C     -10.23984600      1.29021101      2.20483401
C      -9.03786748      3.47902816      1.81698342
C      -8.31753309      1.91518997      3.60948620
C      -6.54919436      1.13339179      1.45188150
H      12.40791085      1.17196832      1.02049855
H      13.02220972      2.17898934     -0.30606838
H      14.01346435      0.86568008      0.33680854
H      12.97639955      0.21295596     -1.83866265
H      12.48052211     -0.82734033     -0.50886222
H      10.54020550     -0.35896842     -1.84887905
H      10.34343965      0.42841197     -0.28466933
H      10.95695742      2.62607458     -1.28631275
H      11.34253021      1.84286243     -2.81576622
H       8.96895090      1.14410136     -3.07554704
H       9.19260999      2.88923454     -3.02080846
H       8.19504099      1.14604840     -0.70414981
H       8.58565227      2.85114430     -0.55820677
H       6.19330830      2.59651045     -0.83806985
H       6.87000945      3.46214637     -2.19952043
H       6.69752873      1.51139585     -3.65171079
H       5.15110586      1.87649393     -2.91924850
H       7.04511725     -0.38425865     -2.09660637
H       5.55265401     -0.53107426     -3.00825077
H       4.28016231      0.38762988     -1.03403637
H       5.77789822      0.40137142     -0.09757962
H       4.44988172     -2.06850177     -1.32685233
H       6.03320133     -2.07848980     -0.55657581
H       4.42284460     -2.86715497      1.02403052
H       5.03263470     -1.31510938      1.58871188
H       2.36438021     -1.72467487      0.12800377
H       2.97597044     -0.18479412      0.70739549
H       2.95538596     -0.96143692      3.03832158
H       1.37045196     -0.96507564      2.29692622
H       1.68969396     -2.93495185      3.71231022
H       3.14262742     -3.39383032      2.86259241
H       1.23875307     -4.80274086      2.22531474
H       1.90192870     -3.95993949      0.84139977
H       0.02950354     -2.34610447      0.85748098
H      -0.52645050     -3.99757488      0.73001613
H      -0.54727810     -2.34497955      3.31750711
H      -1.07539762     -4.03375102      3.17878236
H      -2.98290823     -3.36918757      2.03761324
H      -4.22087166     -1.84952202      0.68481527
H      -4.64730955     -1.34747120      2.33146375
H      -3.55473838      0.51339891      0.13501390
H      -3.93504975      1.01823926      1.76475822
H      -5.37346805     -0.39418901     -1.32603351
H      -6.42547196     -1.83446516     -2.76683220
H      -5.94344155     -0.28789038     -3.50009717
H      -7.17474745     -1.28658948     -4.26507173
H      -8.76905085     -2.06895972     -1.69236194
H      -9.96582373     -0.79137361     -1.92254563
H      -9.33814481     -1.65051567     -3.31512874
H      -9.23706689      1.48054725     -2.96153725
H      -8.59918983      0.65182900     -4.37011125
H      -7.55286253      1.72696025     -3.43035213
H      -9.73995163      2.11061612     -0.45623862
H     -10.82644450      1.63724240      3.06397061
H     -10.13249952      0.20298283      2.29560151
H     -10.85850576      1.49864198      1.32853767
H      -9.49994961      3.63749604      0.83851593
H      -9.67487540      3.97570246      2.55829718
H      -8.07302899      4.00023766      1.80620168
H      -7.41643267      2.52297821      3.74587563
H      -8.08656131      0.88419938      3.90155513
H      -9.05321941      2.30233849      4.32554907
H      -6.15838890      1.44804269      2.41555755
