66
CCCOc1ccc2c(c1)C(c1ccc(OC)cc1OCC(=O)O)C(C(=O)O)C2c1ccc2c(c1)OCO2
C       4.36942960     -4.56254799      1.84336462
C       5.09133248     -4.16949550      0.56207469
C       4.67843825     -2.78585800      0.06046755
O       3.29011081     -2.80932191     -0.26238070
C       2.70912294     -1.60646272     -0.55893576
C       3.39536593     -0.43820233     -0.91864047
C       2.69506542      0.73369043     -1.22400619
C       1.30918265      0.72887280     -1.14174290
C       0.62209940     -0.43248159     -0.78202948
C       1.31208533     -1.60789938     -0.51385259
C      -0.87103612     -0.22159145     -0.83718726
C      -1.68967315     -0.80704694      0.30065435
C      -1.20242035     -0.84303283      1.61610920
C      -1.98928259     -1.34578673      2.65672990
C      -3.28954476     -1.79322514      2.42078846
O      -3.95403652     -2.23644634      3.53031718
C      -5.33298569     -2.54789619      3.37362015
C      -3.79403424     -1.75428908      1.12402401
C      -2.99371147     -1.27776177      0.07845639
O      -3.54557573     -1.18375078     -1.17418097
C      -3.49923481     -2.44435914     -1.84719913
C      -3.96699005     -2.27953900     -3.28059968
O      -4.33933183     -3.21340010     -3.97712743
O      -3.90062918     -1.01652106     -3.75502594
C      -0.97960016      1.32656436     -0.88320291
C      -2.13385090      1.75210642     -1.75397393
O      -2.70069691      1.07901466     -2.60096549
O      -2.51716168      3.02174994     -1.52186889
C       0.35272825      1.84857557     -1.47601946
C       0.75803691      3.20843024     -0.93603814
C       0.79905732      4.31999275     -1.81221771
C       1.16896710      5.58917911     -1.35453516
C       1.49112744      5.72243095     -0.02307401
C       1.45046619      4.65500419      0.84072746
C       1.08896033      3.39219875      0.42003860
O       1.80949817      4.99795492      2.10604343
C       2.06908670      6.40716510      1.94235361
O       1.87883616      6.87250556      0.58974207
H       4.71430822     -5.54566332      2.18514938
H       4.56256452     -3.83719108      2.64082715
H       3.28721964     -4.62438980      1.68857434
H       6.17297946     -4.18520503      0.73632379
H       4.86607568     -4.91973667     -0.20615188
H       5.26214615     -2.55311667     -0.83649181
H       4.88052951     -2.03863598      0.83740721
H       4.47785334     -0.41749639     -0.99002290
H       3.23416987      1.62837562     -1.52300808
H       0.78098482     -2.52160963     -0.26297520
H      -1.18480960     -0.67171194     -1.78776448
H      -0.20461367     -0.47808746      1.85295612
H      -1.58843722     -1.36900674      3.66882326
H      -5.46919722     -3.41108494      2.71353047
H      -5.72909913     -2.81369557      4.35873571
H      -5.89486147     -1.68089195      3.01063763
H      -4.80382998     -2.07744659      0.89776398
H      -4.16925636     -3.15659300     -1.35098869
H      -2.47550438     -2.83658348     -1.87515798
H      -3.54000033     -0.35843464     -3.10475424
H      -1.15687713      1.71737843      0.12958188
H      -3.27082288      3.18818339     -2.12558163
H       0.28542215      1.89587244     -2.57228069
H       0.53945204      4.20091289     -2.86296793
H       1.20532496      6.44156515     -2.02438402
H       1.07781565      2.56980467      1.12775560
H       1.39669839      6.96646637      2.60279140
H       3.10456374      6.60950214      2.24096417
