151
CO[C@H]1C[C@@H]2CC[C@@H](C)[C@@](O)(O2)C(=O)C(=O)N2CCCC[C@H]2C(=O)O[C@H]([C@H](C)C[C@@H]2CC[C@@H](OCCO)[C@H](OC)C2)CC(=O)[C@H](C)/C=C(\C)[C@@H](O)[C@@H](OC)C(=O)[C@H](C)C[C@H](C)/C=C/C=C/C=C/1C
C      -8.51134647      3.01796354     -1.70783419
O      -7.58092056      3.55327726     -0.77639072
C      -6.78504168      2.53971189     -0.13765254
C      -5.45917737      3.23195699      0.29341222
C      -4.59637773      2.44300649      1.30486424
C      -4.53905821      3.10328487      2.68784670
C      -3.20436217      3.76591286      2.99257335
C      -2.53679006      4.32081870      1.72783688
C      -1.24745710      5.03320638      2.17763133
C      -2.33015525      3.18676159      0.68900779
O      -1.07762883      2.55072273      0.93327221
O      -3.28560184      2.13037726      0.83223011
C      -2.25511880      3.62059998     -0.79443243
O      -2.86078908      3.10479835     -1.73149477
C      -1.25135540      4.71272382     -1.11734888
O      -1.59961990      5.86643896     -0.88865628
N      -0.02579435      4.32458521     -1.66134127
C       0.94625128      5.35439396     -1.99815466
C       1.37448852      5.24913489     -3.46001048
C       1.82932048      3.82779663     -3.80305737
C       0.75061653      2.80858547     -3.44032942
C       0.33635679      2.91677130     -1.96989101
C       1.41871888      2.32430206     -1.04062829
O       2.15324997      2.94723292     -0.28802968
O       1.44874676      0.96701277     -1.21697159
C       2.39362612      0.20494972     -0.42927626
C       3.76464918      0.20932776     -1.17657031
C       3.61431741     -0.17771245     -2.66029908
C       4.86171597     -0.69109498     -0.56675712
C       5.15433663     -0.50334036      0.93908896
C       5.82081924      0.85171603      1.25478888
C       7.29959272      0.74967760      1.63243268
C       8.03965651     -0.27285782      0.76648448
O       9.42879056     -0.32804662      1.13898119
C      10.22588567      0.70179859      0.54935628
C      11.66876643      0.54361972      1.02075312
O      11.81048317      1.01395770      2.35750709
C       7.44977111     -1.69325229      0.94892544
O       7.43843097     -2.40098763     -0.30902603
C       8.71592305     -2.90614614     -0.67434700
C       6.00439637     -1.67409578      1.47359282
C       1.80540233     -1.20130020     -0.25119572
C       0.63330377     -1.21911548      0.72320469
O      -0.21794080     -0.31419410      0.76058254
C       0.53686567     -2.36262890      1.73820317
C       1.25266396     -1.91056150      3.01939739
C       1.04484505     -3.70562173      1.27789926
C       0.63178521     -4.46263948      0.23841300
C       1.29013496     -5.80673852      0.01714508
C      -0.44597517     -4.06119659     -0.76072081
O       0.21276377     -3.88243371     -2.01803170
C      -1.65603203     -5.01444415     -0.95530525
O      -1.18084405     -6.25576867     -1.50601592
C      -2.23346154     -7.15722706     -1.82975031
C      -2.48501042     -5.12520520      0.33827139
O      -2.14592884     -5.89209102      1.24471682
C      -3.73608810     -4.24915823      0.52160952
C      -4.50272595     -4.05647174     -0.78286207
C      -3.33669585     -2.96038720      1.26638369
C      -4.40950464     -1.86739879      1.50219644
C      -5.70257646     -2.42832465      2.08600000
C      -4.49336679     -0.97032634      0.28854691
C      -5.48491035     -0.60669654     -0.53963607
C      -6.86631690     -0.99967318     -0.53446637
C      -7.90206122     -0.45454553      0.11834011
C      -7.99110638      0.63792533      1.07466155
C      -7.58044045      1.92235800      0.99525853
C      -8.02845887      2.87383146      2.08488494
H      -7.98753431      2.50154228     -2.52220085
H      -9.07460734      3.85167041     -2.13736129
H      -9.22135744      2.35131481     -1.21494143
H      -6.51910607      1.80004859     -0.89318464
H      -5.68081714      4.24119732      0.67407110
H      -4.90512772      3.42645330     -0.62528090
H      -5.05970165      1.46817797      1.46222797
H      -4.72326186      2.34746751      3.45928725
H      -5.34746518      3.82983256      2.81176769
H      -3.35723161      4.55774167      3.73467226
H      -2.54743952      3.03251622      3.46989788
H      -3.21032583      5.07919365      1.29644058
H      -1.49034180      5.86046742      2.85848485
H      -0.67655009      5.45858922      1.34776863
H      -0.58106802      4.35300184      2.72235575
H      -1.31896578      1.71742854      1.41474025
H       0.54571344      6.35608481     -1.81012151
H       1.81447162      5.23198234     -1.34720901
H       2.17602811      5.96350611     -3.67338087
H       0.52256139      5.51897506     -4.10766028
H       2.75941581      3.60341981     -3.26506280
H       2.05714535      3.76916865     -4.87883377
H       1.10816727      1.80515439     -3.68100643
H      -0.12860379      2.98591669     -4.07441644
H      -0.54292748      2.28360001     -1.82037336
H       2.51077366      0.66961303      0.55611002
H       4.12992157      1.24522412     -1.17288494
H       3.28552940     -1.22079018     -2.77140382
H       2.88685919      0.45851656     -3.17209871
H       4.56656376     -0.06425791     -3.18609975
H       5.78718737     -0.52185606     -1.13278014
H       4.59642047     -1.74019050     -0.74031735
H       4.19979303     -0.54107995      1.48207550
H       5.71706543      1.54091471      0.40868211
H       5.28742069      1.32870216      2.09051906
H       7.75715495      1.74051618      1.55203212
H       7.40283804      0.47249002      2.69051844
H       7.97138146      0.02419860     -0.29015146
H      10.18778281      0.59050381     -0.53902570
H       9.84139846      1.68205670      0.83761459
H      11.97574642     -0.51050197      0.99592674
H      12.34326486      1.13323062      0.38982425
H      12.63420464      0.63264306      2.70817913
H       8.04918007     -2.27588242      1.65861175
H       8.61420430     -3.42722733     -1.63145350
H       9.44824361     -2.10014245     -0.79892442
H       9.06640675     -3.62677893      0.06953851
H       6.02891301     -1.60326714      2.57018965
H       5.50420164     -2.62360502      1.23979157
H       1.43136629     -1.59201333     -1.20449631
H       2.57075696     -1.87705214      0.13424656
H      -0.52164483     -2.48197423      1.99214198
H       2.32583101     -1.78080970      2.84886220
H       0.85168143     -0.95014905      3.36881744
H       1.11047039     -2.65083272      3.82431503
H       1.81768274     -4.13189638      1.91999274
H       0.60095387     -6.61749889      0.26635930
H       1.61231199     -5.92206508     -1.02314301
H       2.17927708     -5.93972619      0.64207450
H      -0.84232459     -3.07746188     -0.49776701
H       0.21992727     -4.76940866     -2.43966817
H      -2.27923959     -4.58389400     -1.75903071
H      -2.86242220     -6.72722825     -2.61686381
H      -2.83675526     -7.40132062     -0.94724591
H      -1.78548059     -8.08468039     -2.20364609
H      -4.39355685     -4.83352835      1.18390657
H      -4.04043811     -3.29463532     -1.41295501
H      -4.54223986     -4.99053909     -1.35189245
H      -5.54149491     -3.76465572     -0.59133207
H      -2.95223719     -3.26228137      2.25379250
H      -2.48320535     -2.50053050      0.75898706
H      -3.99936426     -1.21478626      2.28757968
H      -6.28020267     -3.02108815      1.36939323
H      -6.34348732     -1.61995762      2.45817880
H      -5.48605408     -3.07801715      2.94278416
H      -3.52904340     -0.50202913      0.05551661
H      -5.21804947      0.03809153     -1.37831669
H      -7.08176766     -1.81566233     -1.22142635
H      -8.86585078     -0.93496029     -0.04860506
H      -8.60717346      0.36176263      1.92887272
H      -7.64882578      2.55297644      3.06149587
H      -7.66985528      3.89117907      1.91251895
H      -9.12370695      2.92033602      2.12641134
