85
CC(=O)OC[C@H]1O[C@H](O[C@]2(COC(C)=O)O[C@H](COC(C)=O)[C@@H](OC(C)=O)[C@@H]2OC(C)=O)[C@H](OC(C)=O)[C@@H](OC(C)=O)[C@@H]1OC(C)=O
C      -5.11496257      1.90604299      3.67884849
C      -3.98207561      0.96274466      3.42050004
O      -2.83546763      1.13710270      3.80619117
O      -4.41493030     -0.09925494      2.68647217
C      -3.41675987     -1.09284567      2.41523220
C      -2.46584643     -0.70415444      1.26972260
O      -1.40539572     -1.67305509      1.25497407
C      -0.39275060     -1.38244772      0.28968772
O       0.16186182     -0.08619107      0.48450021
C       1.16963688      0.08404921      1.49010322
C       0.88740115     -0.59876063      2.84496595
O       1.12416300     -2.01356982      2.77054783
C       0.70315358     -2.71315398      3.85734957
C       0.92671329     -4.17763461      3.64145721
O       0.19624107     -2.23285496      4.85943457
O       1.20285991      1.51404816      1.73133425
C       2.08288059      2.10362188      0.75145561
C       1.27858693      3.02304137     -0.17094245
O       2.05555398      3.50697990     -1.27593680
C       2.89387778      4.53889086     -0.99360775
C       3.60042907      4.98376402     -2.23816744
O       3.03991897      5.04954243      0.10531455
C       2.76659568      0.96182061     -0.01094129
O       4.15348077      1.28504377     -0.20785520
C       4.77822865      0.66591694     -1.24369065
C       6.22412905      1.05043464     -1.27594576
O       4.24552229     -0.09306778     -2.04192892
C       2.58423985     -0.20470220      0.95250319
O       2.68758695     -1.47288935      0.29231209
C       3.90549638     -2.07853655      0.33916100
C       3.86479752     -3.38770825     -0.38817705
O       4.90224111     -1.62039000      0.87996271
C      -1.01759032     -1.45766904     -1.11768987
O      -0.05853777     -1.14154560     -2.15625115
C       0.83719578     -2.11888981     -2.44783136
C       1.69535953     -1.70363460     -3.60247375
O       0.91298515     -3.19227565     -1.86945758
C      -2.17383053     -0.45409008     -1.23252325
O      -2.81165692     -0.70836264     -2.51315065
C      -3.26651846      0.37005069     -3.20266647
C      -3.84139523     -0.06595021     -4.51409841
O      -3.22713451      1.53046364     -2.82078874
C      -3.18891944     -0.64922025     -0.08878027
O      -4.11362063      0.46026910     -0.06643870
C      -5.30210498      0.28158620     -0.70213391
C      -6.13101276      1.52274855     -0.59240386
O      -5.65157796     -0.73547669     -1.28336028
H      -5.91904844      1.38598161      4.20449031
H      -4.76444211      2.72722768      4.31118805
H      -5.47454464      2.32151145      2.73438265
H      -3.94359735     -2.01969315      2.15999874
H      -2.85327401     -1.32407576      3.32865396
H      -2.05203560      0.28675305      1.49306348
H       0.38014137     -2.14770732      0.37488148
H      -0.14577896     -0.39714945      3.15140736
H       1.55062832     -0.17858314      3.61277730
H       1.95729353     -4.35823976      3.32305539
H       0.22558985     -4.54899205      2.88947260
H       0.76115427     -4.71118938      4.58263066
H       2.82640320      2.69624449      1.29791526
H       0.42418661      2.47945687     -0.59288916
H       0.83630856      3.85547701      0.39438158
H       3.87698577      4.11232540     -2.84103399
H       2.95120103      5.64899375     -2.81333168
H       4.52002618      5.50934706     -1.96301504
H       2.27388377      0.76896445     -0.97150482
H       6.70604685      0.75283668     -0.34189544
H       6.32221935      2.12811465     -1.43130194
H       6.71909505      0.53038269     -2.10039449
H       3.30930760     -0.12752887      1.77362206
H       3.03876601     -3.99591588     -0.01320486
H       3.76149075     -3.21204044     -1.46021878
H       4.79776680     -3.92894783     -0.20745833
H      -1.42127764     -2.46286552     -1.30152147
H       2.12013488     -0.71564811     -3.41329158
H       2.51977228     -2.41468479     -3.71766640
H       1.09836572     -1.69020443     -4.51910520
H      -1.77205737      0.56697312     -1.22621918
H      -4.67604864     -0.74919548     -4.34314808
H      -3.06860417     -0.54957655     -5.11685217
H      -4.21246186      0.80799553     -5.05821540
H      -3.72016722     -1.59693384     -0.24342348
H      -5.56622226      2.37989324     -0.96783391
H      -6.42398850      1.67943437      0.44847982
H      -7.03226746      1.41142803     -1.20166415
