110
CCC(C)C1NC(=O)C(Cc2ccc3ccccc3c2)NC(=O)C2CCCN2C(=O)C(Cc2c[nH]cn2)NC(=O)C2CCCCN2C(=O)C2CCCCN2C1=O
C       4.24111225     -5.05553102      0.04789638
C       2.87881203     -4.41876269      0.30359456
C       2.50881762     -3.28247052     -0.69251388
C       2.60703693     -3.78678207     -2.13298739
C       1.13787790     -2.65042890     -0.26755522
N       1.14353267     -1.18425470     -0.29536590
C       1.39857501     -0.42097104     -1.40721645
O       1.53476612     -0.87295849     -2.53924102
C       1.43870215      1.09561863     -1.15697659
C       2.77304165      1.65881483     -1.66760242
C       3.91569232      1.34434386     -0.73538955
C       4.14825990      2.13100411      0.39690823
C       5.18363861      1.81566481      1.27833190
C       6.00328654      0.69985492      1.04985557
C       7.04214710      0.36349958      1.93351859
C       7.84674994     -0.75593702      1.70512229
C       7.62991602     -1.54639636      0.58245418
C       6.60276506     -1.22214222     -0.30720424
C       5.77912766     -0.10470065     -0.08993633
C       4.73856082      0.23243586     -0.97174346
N       0.29766716      1.66536762     -1.88558812
C      -0.40775506      2.80372286     -1.62624394
O      -1.42470308      3.02148167     -2.29145614
C       0.11380229      3.77863700     -0.55027364
C       1.02640115      4.84622045     -1.17745260
C       0.22103947      6.13373782     -1.07088772
C      -0.56321713      5.91964888      0.21322805
N      -0.94610536      4.52496611      0.13421445
C      -1.48735306      3.94001944      1.27248422
O      -1.12714875      4.22009991      2.41406767
C      -2.56751232      2.87527625      1.00320868
C      -3.93790387      3.44764742      1.39739012
C      -4.42968350      4.44941664      0.40748016
C      -4.90845845      4.24089589     -0.86851651
N      -5.17008431      5.48749056     -1.36295045
C      -4.85989044      6.38462287     -0.38511550
N      -4.40988049      5.79048751      0.69464941
N      -2.23121711      1.67384962      1.79077181
C      -1.67445576      0.56969978      1.18502775
O      -0.52433339      0.23958186      1.49386058
C      -2.57051027     -0.37241983      0.32430774
C      -3.56770041      0.27875391     -0.65081061
C      -4.71447894     -0.67924573     -0.98394013
C      -5.49177281     -1.05631369      0.28806496
C      -4.65416743     -0.91428132      1.56102683
N      -3.27058634     -1.28022779      1.26568833
C      -2.78478543     -2.46767393      1.79667124
O      -3.41128057     -3.04280549      2.69476792
C      -1.42973387     -3.05996101      1.29296219
C      -1.16280327     -4.43711706      1.94013649
C      -2.09387800     -5.53667950      1.39730531
C      -2.18740124     -5.54473190     -0.13304371
C      -2.40249644     -4.13834883     -0.69472130
N      -1.34956003     -3.25844209     -0.17318081
C      -0.15624027     -3.23627215     -0.92184436
O      -0.16160795     -3.63664290     -2.08953139
H       4.52013798     -5.71476731      0.88066358
H       4.22785921     -5.67384731     -0.85574907
H       5.02100118     -4.29286865     -0.05671316
H       2.88388229     -4.00793567      1.32022142
H       2.10825607     -5.20343495      0.29242638
H       3.28020426     -2.50752359     -0.57772646
H       2.07851056     -4.73607359     -2.25795544
H       3.65223194     -3.95570510     -2.41852941
H       2.21548731     -3.07818229     -2.86206557
H       1.07394070     -2.85909851      0.79925763
H       0.82525231     -0.70496419      0.54906867
H       1.31170834      1.29361925     -0.09188227
H       2.72158993      2.74635896     -1.77547124
H       3.00494496      1.28686177     -2.67367803
H       3.52852914      2.99984338      0.60618177
H       5.33925002      2.44479307      2.15121397
H       7.22485113      0.96601118      2.82157307
H       8.64314501     -0.99697457      2.40172091
H       8.26040255     -2.41118716      0.39809225
H       6.44907453     -1.85799103     -1.17499238
H       4.55899894     -0.39231316     -1.84965105
H      -0.07532915      1.10692415     -2.65254676
H       0.66737538      3.22080224      0.21353078
H       1.31932717      4.63711266     -2.21348298
H       1.94562301      4.94082554     -0.58470781
H      -0.45883107      6.21850091     -1.92965162
H       0.85070081      7.02486727     -1.03997313
H      -1.45440757      6.55168566      0.29132001
H       0.06673308      6.08160528      1.09963154
H      -2.54438044      2.62298123     -0.05378127
H      -4.67445472      2.63575064      1.47114728
H      -3.88911686      3.90062343      2.39632575
H      -5.05676610      3.34619148     -1.45527361
H      -5.51075084      5.69589947     -2.28471249
H      -4.97219966      7.44889166     -0.52047496
H      -1.64916476      1.95769617      2.57788983
H      -1.87370165     -0.94529200     -0.28858261
H      -3.04174015      0.57679077     -1.56523325
H      -4.03215246      1.17042813     -0.23022068
H      -4.30766471     -1.58285087     -1.45722445
H      -5.39376369     -0.22253026     -1.71115261
H      -6.39021238     -0.43305635      0.37737709
H      -5.84294065     -2.08901373      0.18996089
H      -5.10644708     -1.53566623      2.34447938
H      -4.67104379      0.12140034      1.92241717
H      -0.66474540     -2.35633884      1.62796512
H      -0.13027313     -4.74148031      1.73011198
H      -1.26421967     -4.37839384      3.02471210
H      -1.75367731     -6.51852829      1.74108199
H      -3.10232308     -5.39650435      1.80067521
H      -3.00645326     -6.20576921     -0.44300670
H      -1.26425570     -5.96596410     -0.55278530
H      -3.37899407     -3.74320584     -0.39451590
H      -2.40163151     -4.15936507     -1.79301182
