50
Cc1ncsc1CCCl.Cc1ncsc1CCCl.O=S(=O)(O)CCS(=O)(=O)O
C      -1.16253477     -1.74301066      0.03078758
C      -1.18786862     -0.26001090     -0.08008211
N      -2.39493813      0.39110152      0.11503310
C      -2.23252681      1.68652503     -0.02928779
S      -0.64529949      2.20793436     -0.39582102
C      -0.11660847      0.57338035     -0.36417155
C       1.31826992      0.22820312     -0.62334815
C       2.13107934      0.23087427      0.66609721
Cl      3.81914958     -0.22985676      0.33873731
C       1.46647708     -1.29516252      0.86094484
C       1.16236380      0.07034636      0.35550066
N       2.02378612      1.10046299      0.70572615
C       1.61224561      2.22711307      0.17205796
S       0.19261517      2.13400853     -0.77990480
C       0.09532208      0.44953071     -0.44697292
C      -1.01515884     -0.37660682     -1.02501086
C      -2.34707101     -0.19950306     -0.30052944
Cl     -2.33726114     -0.95973879      1.31055295
O       0.39502875      1.59186516     -0.88251757
S       1.31417755      0.97849301      0.04893382
O       2.29764214      1.73668440      0.78373089
O       2.14868514     -0.13790401     -0.76065101
C       0.45632035     -0.11966716      1.15977450
C      -0.48821673     -1.06642997      0.45174879
S      -1.95896820     -0.26337601     -0.16712786
O      -2.15462494      0.97880366      0.54317507
O      -3.00121309     -1.25785336     -0.28047944
O      -1.44331343      0.08951497     -1.65428320
H      -0.39799451     -2.06345930      0.74574589
H      -0.94471014     -2.19369034     -0.94161334
H      -2.12846395     -2.12652730      0.37483858
H      -3.05060916      2.38683626      0.07742083
H       1.36935251     -0.76147747     -1.09510257
H       1.75130915      0.93333751     -1.34427120
H       2.14268385      1.22185674      1.13156200
H       1.72970970     -0.48201644      1.39347525
H       0.73019408     -1.60102333      1.60823030
H       2.45775899     -1.32719498      1.32759461
H       1.46093711     -2.02097518      0.04298862
H       2.13859999      3.16117060      0.32044265
H      -0.73220974     -1.43661683     -1.03303086
H      -1.15018082     -0.09667889     -2.07782737
H      -2.61252032      0.85399820     -0.17092662
H      -3.14589817     -0.68313006     -0.86983586
H       3.10164136      0.10342436     -0.72241246
H      -0.05759948      0.50629877      1.89533827
H       1.22968650     -0.68428770      1.69198524
H      -0.84595963     -1.81022848      1.17296407
H      -0.02168911     -1.60963173     -0.37510263
H      -0.97159719      0.96429407     -1.63919454
