58
Cc1cc(NC(C)C(=O)c2ccccc2)ccc1N/N=C1\C=C(S(=O)(=O)[O-])c2ccccc2C1=O.[Na+]
C       0.11740420     -0.86557351      2.88472908
C      -0.41562434      0.12969280      1.88893920
C      -1.65563798      0.74807676      2.14864893
C      -2.22581156      1.65094189      1.24309770
N      -3.48004317      2.23557412      1.51297999
C      -4.54029941      1.84103739      0.55375024
C      -5.53073594      2.99889051      0.44983220
C      -5.27381528      0.60050466      1.09161746
O      -5.39847362      0.41052795      2.30564817
C      -5.86995380     -0.38568893      0.13590448
C      -5.96768202     -0.15311953     -1.24389180
C      -6.53054143     -1.12047831     -2.08293987
C      -7.00315217     -2.32075443     -1.55314734
C      -6.91771991     -2.55793651     -0.18321797
C      -6.35575093     -1.59443558      0.65901998
C      -1.52639058      1.95120113      0.07394296
C      -0.28974004      1.35541370     -0.19020763
C       0.30022601      0.46092804      0.71665273
N       1.52383486     -0.18784969      0.41420196
N       2.26074697      0.28849502     -0.63317730
C       3.43223129     -0.23870710     -0.83716459
C       4.05514119     -1.35096983     -0.09231021
C       5.38769995     -1.49253116     -0.12271233
S       6.10788651     -2.81569471      0.79864056
O       4.97994889     -3.68854822      1.13219588
O       7.07370017     -3.42995240     -0.11356869
O       6.69546691     -2.13925476      1.95519778
C       6.30713489     -0.59174915     -0.84804759
C       7.70083926     -0.54158054     -0.68188408
C       8.50321448      0.31774203     -1.44625552
C       7.92970963      1.15794819     -2.39367632
C       6.54893386      1.15079173     -2.56575925
C       5.75114148      0.29473347     -1.78898606
C       4.28240173      0.35241424     -1.95660235
O       3.76461915      0.87077240     -2.93709534
Na      0.00000000      0.00000000      0.00000000
H       0.34874921     -1.81573009      2.38754920
H      -0.61678204     -1.08130078      3.67324556
H       1.02107643     -0.47315252      3.36749152
H      -2.18935085      0.50619383      3.06584232
H      -3.79060932      1.97347818      2.45430315
H      -4.11500363      1.63669632     -0.43348358
H      -5.92791069      3.27413351      1.43403473
H      -5.04506609      3.88685403      0.02761672
H      -6.38516398      2.74140127     -0.18624719
H      -5.61682008      0.76650979     -1.70306969
H      -6.59454772     -0.94000856     -3.15526520
H      -7.43270463     -3.07239403     -2.21060733
H      -7.27811736     -3.49538706      0.23242541
H      -6.28862477     -1.79595743      1.72831218
H      -1.92638600      2.66520098     -0.63807950
H       0.22985045      1.60973402     -1.11373440
H       2.02300141     -0.47804953      1.25386727
H       3.41477976     -2.01475550      0.47877464
H       8.20316152     -1.17995526      0.04481590
H       9.58118699      0.31441665     -1.29530250
H       8.55446713      1.81701185     -2.99107354
H       6.08990502      1.81419869     -3.29508482
