108
CCC(C)C1NC(=O)C(Cc2c[nH]c3ccccc23)NC(=O)C2CCCN2C(=O)C(Cc2c[nH]cn2)NC(=O)C2CCCCN2C(=O)C2CCCCN2C1=O
C       4.95984034     -2.89935016     -1.06742619
C       3.45069133     -3.06211779     -1.20411190
C       2.65750007     -2.13545346     -0.26029775
C       2.88923652     -2.49107610      1.21391898
C       1.13700978     -2.08472576     -0.59262393
N       0.86424126     -1.50135784     -1.91989301
C       0.77039526     -0.23695854     -2.40334769
O       0.25971221     -0.10672666     -3.52574856
C       1.42073101      0.99777400     -1.74208308
C       2.84415457      1.12081018     -2.31850156
C       3.46417695      2.45918157     -2.06686999
C       3.25003362      3.60190825     -2.80378155
N       3.97630815      4.61657313     -2.24534809
C       4.70366201      4.15300881     -1.17250866
C       5.57230868      4.82966108     -0.30879182
C       6.19437328      4.08204485      0.69745872
C       5.94759868      2.71910861      0.84017276
C       5.05099577      2.06932536     -0.01827403
C       4.40629063      2.79782436     -1.04278222
N       1.39592364      1.00361162     -0.28255989
C       0.49472476      1.60615448      0.54624584
O       0.36955587      1.11691432      1.67246571
C      -0.29881129      2.85198240      0.07490500
C       0.65912122      4.01498389     -0.22255462
C       0.08153507      5.21062338      0.51576771
C      -0.59998949      4.58048173      1.71671645
N      -1.14523337      3.35389846      1.17042520
C      -2.25700827      2.76102192      1.71970322
O      -2.74976578      3.15126100      2.77984952
C      -2.94233663      1.62534502      0.92637672
C      -4.25653417      2.22421016      0.38846923
C      -4.05835978      3.25286140     -0.67284306
C      -4.57334158      4.52357636     -0.74460521
N      -4.15719392      5.01873748     -1.96000657
C      -3.40610521      4.04700056     -2.56078269
N      -3.31268069      2.96902249     -1.80067698
N      -3.22106037      0.53861220      1.87191425
C      -3.20012205     -0.81160798      1.71588099
O      -3.33535737     -1.47871501      2.74990705
C      -2.90788346     -1.51739512      0.35989208
C      -3.65791547     -1.03873216     -0.88694192
C      -5.16225416     -1.32557548     -0.88221297
C      -5.55399960     -2.38860431      0.13253271
C      -4.49515372     -3.48205876      0.21197027
N      -3.14058648     -2.98266929      0.51373215
C      -2.22816757     -3.94289081      0.93175299
O      -2.53128930     -5.13853623      0.85687786
C      -0.81402831     -3.51939844      1.45558306
C      -0.63167787     -3.97658083      2.91583940
C      -0.43990488     -5.48707411      3.07064292
C       0.63351979     -6.01613819      2.12383219
C       0.41301115     -5.56088648      0.68776254
N       0.25600684     -4.10494955      0.60969731
C       0.52692809     -3.51803906     -0.61779254
O       0.43848431     -4.13495597     -1.68296110
H       5.31690614     -3.17948707     -0.06898222
H       5.47584993     -3.53947291     -1.79222380
H       5.25888637     -1.86455621     -1.25454871
H       3.18740800     -4.10782776     -1.01568504
H       3.19059502     -2.84133220     -2.24306769
H       3.07058237     -1.13033784     -0.38867919
H       3.89263345     -2.19185744      1.53499803
H       2.80166070     -3.56577851      1.37724580
H       2.17759997     -1.97637607      1.86476892
H       0.59758755     -1.47301024      0.13257888
H       0.47809858     -2.17345426     -2.58045882
H       0.82172229      1.84579533     -2.08674013
H       2.81014903      0.96466447     -3.40536353
H       3.49085476      0.32360458     -1.93298060
H       2.63862447      3.77150425     -3.67023547
H       3.97248425      5.57768946     -2.56627295
H       5.77678191      5.88611158     -0.43375891
H       6.89032823      4.57316826      1.37739849
H       6.43155908      2.16000873      1.62957043
H       4.87013164      1.00969700      0.10902484
H       1.92011308      0.28965350      0.19933006
H      -0.91505914      2.59960372     -0.79042213
H       1.66738669      3.82127236      0.16004802
H       0.74631410      4.21681585     -1.29523089
H       0.83603705      5.95739980      0.78794508
H      -0.66279982      5.70608488     -0.12139425
H       0.12593586      4.30886397      2.48978587
H      -1.37884060      5.21518654      2.14536912
H      -2.29910844      1.24293076      0.12943015
H      -4.82660072      2.67466233      1.21217707
H      -4.90016857      1.44104431     -0.02431631
H      -5.19393539      5.08878361     -0.06252785
H      -4.38747117      5.92895430     -2.33497370
H      -2.97248741      4.18159512     -3.54803965
H      -3.35464962      0.82089119      2.83854728
H      -1.84310797     -1.36111730      0.17174939
H      -3.47754844      0.00849190     -1.13233942
H      -3.23064794     -1.57702570     -1.73911472
H      -5.45890268     -1.63879159     -1.88680457
H      -5.73824868     -0.41155076     -0.69640237
H      -6.52168771     -2.82654165     -0.14339557
H      -5.68900709     -1.92148153      1.12125547
H      -4.79036476     -4.20306390      0.98389153
H      -4.42339637     -4.02733354     -0.73642894
H      -0.71562216     -2.43340890      1.44749170
H      -1.48922151     -3.66538506      3.51842768
H       0.25422700     -3.47046447      3.32298521
H      -0.15920178     -5.70777660      4.10614807
H      -1.38670951     -6.00500459      2.87736215
H       0.66294072     -7.10882852      2.16993913
H       1.61678698     -5.65645445      2.45665730
H       1.27704696     -5.86425475      0.08037135
H      -0.45375470     -6.04744896      0.24192510
