108
CO[C@H]1/C=C/O[C@@]2(C)Oc3c(C)c(O)c4c(O)c(c5c(nc6cc(C)ccn65)c4c3C2=O)NC(=O)/C(C)=C\C=C\[C@H](C)[C@H](O)[C@@H](C)[C@@H](O)[C@@H](C)[C@H](OC(C)=O)[C@@H]1C
C      -3.97863280     -3.95694255     -1.46740227
O      -3.41832804     -2.96187739     -0.61253110
C      -3.34914134     -3.37101309      0.75468746
C      -2.19728032     -4.32604288      1.01132323
C      -1.11053380     -4.58595275      0.26529597
O      -0.89823612     -4.06533930     -0.97029360
C       0.42868200     -3.81405123     -1.41572574
C       1.26854208     -5.08692891     -1.51129749
O       0.32910289     -3.32133112     -2.77981385
C       1.03069374     -2.14382988     -2.83817911
C       1.17949267     -1.45118415     -4.03100967
C       0.51281229     -1.93321407     -5.28834144
C       1.95511407     -0.28122831     -3.97818489
O       2.09820559      0.48862116     -5.11442363
C       2.61761059      0.17587888     -2.79053724
C       3.40968336      1.35134601     -2.74227523
O       3.59226979      2.14073912     -3.86469437
C       4.01679876      1.83171113     -1.56806435
C       3.95278859      0.99953464     -0.45080211
C       3.16722669     -0.15812352     -0.42796604
N       3.22717827     -0.74628960      0.80953531
C       4.08293821     -0.04352487      1.50661793
C       4.55777370     -0.21748821      2.83618706
C       5.57361050      0.54145606      3.30007497
C       6.13742504      0.37852954      4.68221811
C       6.19367472      1.54739645      2.44305854
C       5.70348019      1.75051747      1.20855925
N       4.62514175      0.98966205      0.75920894
C       2.45007054     -0.58426732     -1.59242950
C       1.61886522     -1.72817877     -1.65128463
C       1.20687283     -2.72582562     -0.66902618
O       1.44739869     -2.73738880      0.52508399
N       4.66247425      3.08365334     -1.63990630
C       4.40146560      4.21506392     -0.90543207
O       4.98561212      5.26465339     -1.17057461
C       3.40638076      4.21161587      0.21107919
C       3.94053745      4.63163113      1.54823555
C       2.09344417      3.97123583      0.04547670
C       1.42051562      3.69386815     -1.20332597
C       0.22343539      3.09422978     -1.33015129
C      -0.70657442      2.59446837     -0.22793836
C      -0.07197380      1.37373012      0.44378588
C      -2.12859461      2.28300285     -0.81188750
O      -2.71599871      3.49163363     -1.34532364
C      -3.12831464      1.63161061      0.20076893
C      -4.08898893      2.66837188      0.79793207
C      -3.86605419      0.43938718     -0.47824782
O      -2.87325779     -0.41906314     -1.02680194
C      -4.88711888     -0.34060335      0.39709189
C      -5.82929095     -1.17281069     -0.48557171
C      -4.40345163     -1.12099977      1.66144497
O      -4.15932463     -0.08470193      2.66257649
C      -4.40943886     -0.37280199      3.96537229
C      -4.14873898      0.83748075      4.81426350
O      -4.74804523     -1.45557850      4.40871674
C      -3.21856244     -2.13481098      1.68735002
C      -1.83021270     -1.48370436      1.65725904
H      -4.00834200     -3.55298363     -2.48412445
H      -3.38506518     -4.87587133     -1.47335987
H      -4.99906892     -4.18535105     -1.16314456
H      -4.29212333     -3.88050355      1.00423800
H      -2.23687887     -4.81789434      1.98166330
H      -0.35462322     -5.27675416      0.61248116
H       2.19871740     -4.89539434     -2.05832579
H       1.53361603     -5.47676472     -0.52479051
H       0.73238689     -5.87436844     -2.05523394
H       1.25023168     -2.02920062     -6.09317166
H      -0.26449715     -1.22530232     -5.59484412
H       0.04921012     -2.91948700     -5.17593689
H       1.52568869      0.14693439     -5.82300045
H       3.08363022      1.71193318     -4.58745496
H       4.09200237     -0.98371465      3.44156768
H       7.20084963      0.10220518      4.63163128
H       5.61412200     -0.40580110      5.24307416
H       6.04231222      1.30376077      5.25085789
H       7.03835318      2.11582962      2.81461568
H       6.13754739      2.47453361      0.53388111
H       4.93530979      3.35864728     -2.58582748
H       3.56413740      5.62633878      1.81704018
H       3.62703711      3.92577818      2.32036149
H       5.03218431      4.67976043      1.56542224
H       1.45983946      4.00676996      0.93277413
H       1.94543059      3.94744967     -2.12526845
H      -0.09722825      2.89429497     -2.35187315
H      -0.81489690      3.39553169      0.51024241
H       0.99323011      1.51278878      0.66332124
H      -0.52851409      1.17732162      1.41365483
H      -0.17075025      0.48635778     -0.18407309
H      -1.99330668      1.62691056     -1.68194783
H      -2.02018426      3.98542080     -1.80317224
H      -2.55836832      1.21201093      1.02295751
H      -4.64457713      2.27479325      1.65188840
H      -4.81558673      2.99558813      0.04522516
H      -3.54799683      3.55108734      1.15505218
H      -4.41304416      0.84819092     -1.33604176
H      -3.23440973     -1.32317026     -1.15078148
H      -5.56010097      0.43263528      0.79543442
H      -6.58321207     -0.51425601     -0.94275629
H      -6.37787866     -1.92646456      0.08662236
H      -5.32530940     -1.66223135     -1.31668558
H      -5.27852490     -1.68665625      2.00981604
H      -4.61776055      0.69811752      5.79157241
H      -4.59110086      1.72849249      4.35903343
H      -3.07314784      0.96167235      4.93930057
H      -3.25476194     -2.55144698      2.70604584
H      -1.48884663     -1.27251284      0.64727700
H      -1.07309598     -2.13915163      2.10868065
H      -1.80385914     -0.56180657      2.24232143
