79
CN[C@@H]1[C@H](O[C@H]2[C@H](O[C@@H]3[C@@H](NC(=N)N)[C@H](O)[C@@H](NC(=N)N)[C@H](O)[C@H]3O)O[C@@H](C)[C@]2(O)C=O)O[C@@H](CO)[C@H](O)[C@H]1O
C       4.05428913     -2.28871487     -3.44554048
N       4.69978657     -1.25725156     -2.63980709
C       4.38744153     -1.41183128     -1.18999681
C       2.91914034     -1.11043891     -0.77763689
O       2.56352226      0.17970864     -1.27745961
C       1.15918076      0.33236574     -1.54968432
C       0.31812024      0.53697028     -0.27921191
O      -1.03323153      0.14293893     -0.55062837
C      -1.82845428      0.05996879      0.64816300
C      -2.76029047     -1.17566565      0.52338683
N      -2.05030941     -2.40010852      0.91867449
C      -1.00052586     -2.95828888      0.28668773
N      -0.50493731     -2.64682032     -0.85406706
N      -0.46102857     -3.96347622      0.99695824
C      -4.00422952     -0.97214930      1.41172209
O      -4.79954600     -2.16850916      1.48184429
C      -4.87284438      0.17347483      0.84204297
N      -5.79472343      0.62556601      1.89694313
C      -6.92734617      1.31306521      1.63235835
N      -7.64117135      1.30270161      0.57241624
N      -7.29250810      2.08701250      2.66946531
C      -4.03246459      1.35235216      0.29422283
O      -3.96699483      1.28040857     -1.13588154
C      -2.60820263      1.37903804      0.86962615
O      -2.69967144      1.64815402      2.27652816
O       0.34607198      1.94025355      0.03181351
C       0.81921518      2.66621895     -1.12202452
C       2.11646934      3.37069708     -0.74076685
C       0.93851326      1.66245238     -2.27007907
O       1.99287645      1.97185348     -3.19342222
C      -0.36948531      1.63430597     -3.06351415
O      -0.38219408      1.67799946     -4.29515727
O       2.76470713     -1.19436269      0.63804080
C       3.59057264     -0.27169721      1.37197133
C       3.28063690     -0.43328731      2.86642116
O       1.94866706      0.01403530      3.15160318
C       5.07023886     -0.54401584      1.08343895
O       5.92004136      0.38680762      1.75924721
C       5.31900976     -0.45273820     -0.42413787
O       6.69521144     -0.78286629     -0.68508560
H       4.34991523     -2.16282835     -4.49150671
H       2.96234491     -2.22004701     -3.40014852
H       4.36640980     -3.29120922     -3.13298508
H       4.32465849     -0.34507301     -2.93071918
H       4.64923413     -2.43325161     -0.88298632
H       2.27306781     -1.87721555     -1.21878899
H       0.81972111     -0.50951971     -2.16349227
H       0.70337282     -0.02046851      0.57450316
H      -1.17312695     -0.10353125      1.51587837
H      -3.08416776     -1.31631119     -0.51578005
H      -2.14993718     -2.65353180      1.89539458
H      -1.05830192     -1.87203408     -1.23045395
H      -1.15108164     -4.64469556      1.28865135
H       0.25241970     -4.41665318      0.43597042
H      -3.69353900     -0.76505887      2.44405439
H      -5.63942363     -1.91375569      1.91219013
H      -5.46814967     -0.25490557      0.02518648
H      -5.27989978      1.06909130      2.65884265
H      -7.27926686      0.63055103     -0.10122195
H      -7.33271875      1.58144050      3.54612652
H      -8.20392381      2.49153812      2.47185951
H      -4.51785765      2.30646249      0.53574188
H      -4.81053920      1.63709313     -1.47456634
H      -2.07773270      2.21823912      0.40894015
H      -1.81252042      1.95574761      2.55544685
H       0.07027052      3.43700342     -1.34283334
H       1.95986233      3.99372005      0.14706280
H       2.47650854      4.01003706     -1.55291959
H       2.90412155      2.65660916     -0.47997836
H       1.60381586      1.92834058     -4.09474504
H      -1.30947643      1.57502851     -2.49222373
H       3.31937123      0.75245967      1.08707997
H       3.34415750     -1.48606682      3.15966086
H       3.96508427      0.15762368      3.48196988
H       1.79268458     -0.19180585      4.08839276
H       5.35042392     -1.54463272      1.43579839
H       6.78384767      0.31260045      1.30352825
H       5.18799006      0.58505634     -0.75738429
H       6.70882834     -0.98217360     -1.64687271
