75
Cc1cc(N/N=C2\C(=O)C=Cc3ccccc32)c(S(=O)(=O)[O-])cc1Cl.Cc1cc(N/N=C2\C(=O)C=Cc3ccccc32)c(S(=O)(=O)[O-])cc1Cl.[Ba+2]
C      -4.94159502      2.45424140      0.26777373
C      -4.09349588      1.25569015     -0.00083143
C      -2.85757060      1.13267795      0.61654652
C      -2.04864555      0.03802249      0.39250684
N      -0.76460232     -0.06804469      1.02807229
N       0.39479435      0.30996029      0.43109505
C       1.53726194     -0.22908616      0.61512341
C       1.71545112     -1.34677184      1.51926444
O       0.73679012     -1.82522580      2.15003908
C       3.05515829     -1.92695731      1.69938566
C       4.05265901     -1.42623257      1.04404527
C       3.94981580     -0.30637293      0.11975990
C       5.09671957      0.15706640     -0.54307851
C       4.96483736      1.21281816     -1.41028723
C       3.73235518      1.77472449     -1.60012307
C       2.59999670      1.31102969     -0.94026937
C       2.72950028      0.25901722     -0.07533359
C      -2.48037723     -0.93644279     -0.45308442
S      -1.51534528     -2.33113509     -0.76806956
O      -0.19855793     -2.05251654     -1.39336758
O      -1.39011598     -3.22066313      0.46434904
O      -2.35935890     -3.30336731     -1.88373742
C      -3.73407222     -0.82703528     -1.08939944
C      -4.52725414      0.26709638     -0.85696808
Cl     -6.09225665      0.45592987     -1.61911265
C      -5.45071982      0.00508239     -1.89127447
C      -4.33956796      0.09242396     -0.89607728
C      -3.10827908     -0.43262870     -1.15873777
C      -2.02576403     -0.37990764     -0.25587960
N      -0.80059742     -0.96329359     -0.58670132
N       0.41945821     -0.89502034      0.04597996
C       1.46724015     -0.43662244     -0.56282712
C       1.38848681      0.02357905     -1.93169676
O       0.32375236      0.00423994     -2.58313469
C       2.57329630      0.52478980     -2.57298179
C       3.75886719      0.59628184     -1.98302400
C       3.86461894      0.13723586     -0.60024827
C       5.10333349      0.22119782     -0.00703337
C       5.23468524     -0.20324977      1.29764587
C       4.16718477     -0.69632855      1.99141381
C       2.90397935     -0.78846833      1.40518187
C       2.79113615     -0.36051636      0.10474559
C      -2.21133232      0.22968371      0.95532875
S      -0.97344402      0.35817441      2.19281815
O      -0.53244841     -0.98552833      2.67459070
O       0.18053407      1.18872840      1.78406518
O      -1.64795290      1.12772800      3.56137290
C      -3.47521760      0.76825273      1.22175622
C      -4.51533800      0.70445964      0.32492144
Cl     -6.09141293      1.38488881      0.66844796
Ba      0.00000000      0.00000000      0.00000000
H      -4.38008505      3.18470594      0.87466520
H      -5.21212468      2.89571756     -0.72347328
H      -5.88685734      2.13897786      0.74663350
H      -2.50592602      1.88493636      1.27999896
H      -0.79244169     -0.42786435      2.00090491
H       3.11983070     -2.76175749      2.39094433
H       5.04389679     -1.88072396      1.19876690
H       6.06384271     -0.29671722     -0.38313773
H       5.82701964      1.61978723     -1.95929268
H       3.60394032      2.61017195     -2.28029815
H       1.64252935      1.80322816     -1.13507963
H      -4.08571678     -1.59888509     -1.76532564
H      -6.40632310      0.38266246     -1.44867554
H      -5.23056441      0.56081186     -2.80739817
H      -5.66093558     -1.06165212     -2.16708249
H      -2.94631548     -0.92585304     -2.12594346
H      -0.80514717     -1.58360435     -1.46104654
H       2.53236837      0.87435414     -3.60542378
H       4.62796310      0.98598426     -2.51389579
H       5.96410263      0.61386403     -0.54600420
H       6.21090540     -0.13299760      1.75381355
H       4.28595000     -1.02317890      3.00726075
H       2.05879165     -1.17358100      1.93057989
H      -3.63529395      1.25800796      2.18481072
