71
COc1cc(NC(=O)C2=Cc3ccccc3/C(=N/Nc3cc(C(=O)Nc4ccccc4)ccc3OC)C2=O)c(OC)cc1Cl
C      -9.02040896     -1.58812442     -2.70541820
O      -9.15345774     -1.36074928     -1.30689184
C      -8.00624852     -1.11585165     -0.59335604
C      -6.75998994     -0.83967894     -1.16990245
C      -5.63981964     -0.58953488     -0.36598112
N      -4.35862476     -0.27622109     -0.88103610
C      -3.98785805     -0.06011140     -2.18705970
O      -4.72680098     -0.17041211     -3.16263335
C      -2.56365437      0.37979191     -2.37878866
C      -2.22088217      0.81663142     -3.60273206
C      -0.88576490      1.30448399     -3.94010500
C      -0.61796716      1.74525653     -5.24387945
C       0.64461458      2.23541101     -5.58153970
C       1.65303182      2.28913121     -4.62280141
C       1.39833108      1.84864126     -3.32572677
C       0.13065587      1.35553855     -2.98372160
C      -0.14592482      0.89117123     -1.60195569
N       0.81799790      0.94905883     -0.72514626
N       0.58313098      0.54931930      0.54700929
C       1.69015014      0.21556021      1.36351671
C       2.97638497      0.69249010      1.07665834
C       4.05686542      0.36323707      1.89754206
C       5.40584910      0.87996899      1.54399483
O       5.50536166      2.03695273      1.15870000
N       6.41794395     -0.05671314      1.65075862
C       7.79155087      0.14122696      1.39508446
C       8.61369075     -0.99252021      1.38461416
C       9.98143848     -0.87899182      1.12241788
C      10.54430499      0.37222125      0.88379827
C       9.73710698      1.50674758      0.90669904
C       8.36768948      1.39249526      1.16289544
C       3.85449229     -0.41250487      3.04309471
C       2.57211215     -0.87155043      3.35781596
C       1.49023714     -0.56812469      2.52282954
O       0.19553617     -0.97785700      2.73568749
C      -0.02641048     -1.92748457      3.76784607
C      -1.54766991      0.36360246     -1.29881979
O      -1.81865894     -0.07307362     -0.18375818
C      -5.76495142     -0.62161156      1.03966396
O      -4.60922619     -0.36723437      1.73968512
C      -4.69989659     -0.30826760      3.15817099
C      -7.00557867     -0.88873331      1.61799309
C      -8.11759173     -1.12969856      0.80542968
Cl     -9.62848683     -1.45349329      1.58592695
H      -8.66049086     -0.69173499     -3.22217536
H      -8.37759809     -2.45100476     -2.90293245
H     -10.01421364     -1.81585818     -3.10317781
H      -6.66218790     -0.81629377     -2.24856330
H      -3.64619957     -0.16163538     -0.15327985
H      -2.95635565      0.83526473     -4.40529647
H      -1.39050151      1.71613305     -6.01037006
H       0.84061332      2.58102219     -6.59366130
H       2.63491917      2.67750992     -4.88070786
H       2.19303687      1.89988126     -2.58294862
H      -0.26539607      0.01563560      0.78580572
H       3.13630130      1.32345862      0.20690896
H       6.13650922     -1.01033205      1.83287682
H       8.20130861     -1.98348786      1.56064321
H      10.60590651     -1.76838515      1.10173972
H      11.60500980      0.46224864      0.67273683
H      10.16964084      2.48759367      0.72440680
H       7.77379004      2.30129207      1.17549722
H       4.67797348     -0.63109170      3.71833740
H       2.44649908     -1.44505448      4.26908287
H       0.57953366     -2.82720084      3.61886441
H      -1.07966505     -2.23084040      3.71819405
H       0.15211729     -1.48855371      4.75674498
H      -3.69959828     -0.10695036      3.55031012
H      -5.03133750     -1.26540865      3.57472072
H      -5.35396932      0.50844750      3.47724189
H      -7.13824977     -0.91505000      2.69372442
