96
CCCCCCCCSc1nc(Nc2cc(C(C)(C)C)c(O)c(C(C)(C)C)c2)nc(SCCCCCCCC)n1
C      -9.40996429     -3.39130339     -1.48039915
C      -9.03761776     -1.99515988     -1.00670507
C      -7.77409847     -1.96087054     -0.14372397
C      -6.50767330     -2.35396580     -0.90914918
C      -5.22305277     -2.14892750     -0.09815847
C      -5.14347039     -3.05270717      1.13503250
C      -3.76980839     -3.03094038      1.81376453
C      -3.42237835     -1.66862232      2.41463454
S      -1.90735861     -1.75023685      3.42250023
C      -0.72135614     -1.87288746      2.11081229
N      -0.45652701     -0.76632956      1.42887347
C       0.43397141     -0.88536294      0.45521873
N       0.83907653      0.21037323     -0.30284193
C       0.43752857      1.55153838     -0.36342689
C       1.24111145      2.45735721     -1.06712446
C       0.95493133      3.83319160     -1.14095239
C       1.89293353      4.79431111     -1.91575083
C       1.11981957      5.52949911     -3.03437277
C       3.07741065      4.07965493     -2.61980765
C       2.52718934      5.81958848     -0.94963469
C      -0.20537554      4.27982471     -0.46075261
O      -0.44451773      5.62556594     -0.49462125
C      -1.07943633      3.40838405      0.23434996
C      -2.40322314      3.84736787      0.91544374
C      -2.09606276      4.57128220      2.24313209
C      -3.33927794      2.65716550      1.27405294
C      -3.25021491      4.75746146     -0.00539816
C      -0.69613226      2.05067035      0.28132509
N       1.03019141     -2.03048348      0.14908651
C       0.68649859     -3.07520418      0.89533748
S       1.44617595     -4.62838446      0.50972821
C       2.90642821     -4.49619261      1.58909527
C       3.99404036     -3.54536871      1.07860544
C       4.60479672     -3.96497022     -0.26329423
C       5.69086551     -3.00601631     -0.76361369
C       6.94862006     -3.00246813      0.10748017
C       8.04484780     -2.12689511     -0.50427993
C       9.30661135     -2.13812441      0.35718755
C      10.40102651     -1.27163454     -0.24485032
N      -0.17870449     -3.05971021      1.89554450
H      -8.66069397     -3.79464899     -2.16625200
H     -10.36595802     -3.36444850     -2.01340053
H      -9.51245247     -4.07891157     -0.63519958
H      -8.91795774     -1.33462559     -1.87258196
H      -9.87119228     -1.59695254     -0.41645732
H      -7.65507806     -0.94430486      0.24956054
H      -7.91498254     -2.62064613      0.71961859
H      -6.43662180     -1.75024483     -1.82243817
H      -6.56785086     -3.40172625     -1.22562281
H      -5.14685038     -1.09653596      0.19908112
H      -4.36848254     -2.35841460     -0.75367949
H      -5.36038093     -4.08651248      0.83886199
H      -5.90784766     -2.76404039      1.86504595
H      -3.77843374     -3.79157497      2.60424930
H      -3.01068789     -3.33621868      1.08476195
H      -4.23056089     -1.34017434      3.07614809
H      -3.30645580     -0.90546354      1.63911386
H       1.55463912     -0.07595241     -0.95551689
H       2.12527615      2.05756934     -1.55306559
H       0.61668360      4.81703407     -3.69768996
H       0.35845877      6.21294152     -2.65012650
H       1.79626889      6.13614814     -3.64814257
H       2.72870685      3.33947659     -3.34918348
H       3.73223065      3.57389118     -1.90046232
H       3.70408361      4.79499154     -3.16658828
H       1.79351671      6.49571046     -0.50337150
H       3.04814324      5.31409448     -0.12755473
H       3.25766921      6.45156220     -1.46916011
H      -0.82224702      5.88953076      0.35533598
H      -3.01688867      4.77670461      2.80032385
H      -1.45067126      3.96124704      2.88491333
H      -1.59575976      5.53158159      2.10142074
H      -3.56138114      2.04105984      0.39447012
H      -2.90775840      2.01341126      2.04932221
H      -4.29754542      3.01259201      1.67335506
H      -4.25024003      4.92276664      0.41122211
H      -2.82134872      5.75241279     -0.14294186
H      -3.37534211      4.30637276     -0.99678135
H      -1.31096297      1.34224400      0.82120887
H       2.58689574     -4.18796579      2.59067262
H       3.32589910     -5.50280673      1.69128905
H       3.60626710     -2.52320108      1.00813062
H       4.78119250     -3.51985074      1.84062184
H       3.82389865     -4.00478698     -1.03068089
H       5.01842725     -4.97722533     -0.18184254
H       5.28336386     -1.98973895     -0.83138848
H       5.96516691     -3.30550957     -1.78336376
H       7.31912322     -4.02842146      0.22123944
H       6.71230747     -2.62788601      1.10955207
H       8.28600360     -2.48958852     -1.51015560
H       7.67941438     -1.09829601     -0.60789471
H       9.07376051     -1.77514856      1.36521795
H       9.67793554     -3.16468211      0.45723674
H      10.07663145     -0.22962165     -0.32324045
H      11.29773949     -1.30375740      0.38061545
H      10.67510522     -1.62392928     -1.24426023
