85
CCC1O[C@]2(CCC1C)C[C@@H]1C[C@@H](C/C=C(\C)CC(C)/C=C/C=C3\CO[C@@H]4[C@H](O)C(C)=C[C@@H](C(=O)O1)[C@]34O)O2
C       6.01546828     -2.09381377     -1.87298834
C       5.86796741     -0.62409015     -1.49908467
C       5.28870298     -0.43139497     -0.08684076
O       4.04000035     -1.13773053     -0.04596365
C       3.03693518     -0.65613553      0.84910096
C       3.67892955     -0.05242859      2.10170798
C       4.58286878      1.13284153      1.75254912
C       5.14396703      1.04984807      0.32137510
C       6.43926394      1.85263626      0.22193094
C       2.13013033     -1.83566918      1.23722665
C       1.06337172     -2.13981782      0.17430512
C       1.39441805     -1.50211452     -1.17315589
C       1.71628540     -0.00294755     -1.04452465
C       0.46607427      0.85589644     -1.31712528
C       0.73142019      2.34185608     -1.29970212
C       0.23242819      3.23348294     -0.41659735
C       0.61399885      4.68730627     -0.50388810
C      -0.64532083      2.84884578      0.75898734
C      -2.16043686      2.71946094      0.45777059
C      -2.79043921      4.06765204      0.10010516
C      -2.86725246      2.12542425      1.66223908
C      -3.95793849      1.34224252      1.68553377
C      -4.76615757      0.94626591      0.56155283
C      -4.51599643      0.03817833     -0.39805235
C      -5.52894463     -0.22816706     -1.46939309
O      -5.08014403     -1.38709723     -2.19711886
C      -4.08549325     -2.05642282     -1.37464549
C      -4.75306608     -3.14723310     -0.48556036
O      -6.18120457     -3.04988367     -0.53672211
C      -4.33768567     -3.16484074      0.96863395
C      -5.04554740     -4.15822293      1.85521959
C      -3.34727014     -2.38769790      1.44354772
C      -2.56847559     -1.42816846      0.58250494
C      -1.32550332     -2.16633143      0.09566069
O      -1.33391857     -3.11680241     -0.67593995
O      -0.19979806     -1.63274812      0.65526956
C      -3.36937150     -0.91656812     -0.62615143
O      -2.49448965     -0.24235749     -1.55003863
O       2.22616187      0.34475279      0.24788195
H       6.64090977     -2.62416002     -1.14389145
H       6.48795473     -2.19199404     -2.85873100
H       5.04297693     -2.59390287     -1.91344806
H       6.85034489     -0.15057528     -1.58211815
H       5.20680300     -0.14558086     -2.22953501
H       5.95716811     -0.93675194      0.62266903
H       4.28325985     -0.81790321      2.60691858
H       2.91796598      0.29134040      2.81529613
H       4.02130118      2.06835133      1.85737590
H       5.39230924      1.17841423      2.49030918
H       4.41361171      1.52001113     -0.34905900
H       6.29340211      2.86799650      0.61079111
H       7.24165326      1.38323054      0.79922655
H       6.77525179      1.94063840     -0.81550091
H       1.62685423     -1.62471016      2.19040281
H       2.75084154     -2.72615675      1.39279273
H       0.98792145     -3.22983361      0.07511975
H       0.59028440     -1.66025372     -1.90119856
H       2.26840744     -2.01914737     -1.58943196
H       2.48067188      0.25682024     -1.78741014
H      -0.30178894      0.60820472     -0.58120109
H       0.05583711      0.60426638     -2.30329739
H       1.39338432      2.69209681     -2.08756510
H       1.10795403      5.00413708      0.42118907
H       1.30488616      4.88589459     -1.33024381
H      -0.26835541      5.31166252     -0.65686184
H      -0.49576376      3.57770832      1.56563098
H      -0.27928855      1.90394767      1.18267952
H      -2.29183867      2.05355703     -0.39843444
H      -2.43321874      4.42516852     -0.87106748
H      -2.56287260      4.82884847      0.85461185
H      -3.88346985      3.99169833      0.02860782
H      -2.43828112      2.38872736      2.62856358
H      -4.35667961      1.04968967      2.65667605
H      -5.73142384      1.45563726      0.54333558
H      -5.59557696      0.60318788     -2.17902159
H      -6.52229784     -0.43205030     -1.05837746
H      -3.39882055     -2.54534941     -2.07788597
H      -4.49654547     -4.12400781     -0.91783652
H      -6.38394142     -2.72182978     -1.43488070
H      -4.69377869     -4.10372664      2.89368048
H      -6.12717554     -3.97087659      1.86530520
H      -4.86648574     -5.18082973      1.49573129
H      -3.04841609     -2.44827320      2.48817530
H      -2.22455466     -0.58731015      1.19197029
H      -3.00531911     -0.08401799     -2.36967108
