77
CCCCC(CC)C(=O)[O-].CCCCC(CC)C(=O)[O-].CCCC[Sn+2]CCCC
C       3.70721425      0.36460678      0.11215857
C       2.50896377     -0.54708149      0.22940007
C       1.22886580      0.14775696     -0.20148281
C       0.12481919     -0.85675788     -0.03878038
C      -1.22570345     -0.33470216     -0.42309725
C      -1.64882465      0.85968061      0.39434058
C      -3.01984610      1.29911497     -0.07834737
C      -2.19574756     -1.44182636     -0.25119797
O      -1.96056945     -2.46398623      0.43414706
O      -3.42150148     -1.34026790     -0.87929193
C       2.51231122      0.62732197     -0.68956445
C       1.92034914      0.87458338      0.68766700
C       1.36948823     -0.35713418      1.30728478
C       0.32714217     -1.12238394      0.60962909
C      -0.99692114     -0.57076919      0.30631222
C      -1.09866323      0.63815944     -0.57332133
C      -2.60810270      0.97135944     -0.75765731
C      -1.77994188     -1.66050587     -0.40205838
O      -1.94505478     -1.51548243     -1.63049507
O      -2.28736052     -2.75188291      0.24787195
C       3.41033871      1.43056164     -0.67771698
C       3.18150878      0.36646774      0.37188575
C       3.29373484     -1.00740620     -0.23681244
C       2.28467033     -1.23373001     -1.33799148
Sn      0.28110565     -1.05541708     -0.70820875
C      -1.76378819     -0.89303799     -0.13608748
C      -2.09642593      0.52132620      0.26682110
C      -3.56553137      0.53323780      0.65446124
C      -4.45184400      0.10861785     -0.49255451
H       4.54694883     -0.13383200      0.63782540
H       3.92736841      0.46550159     -0.98237665
H       3.42204108      1.33099471      0.56669916
H       2.70739262     -1.43423980     -0.40561633
H       2.38190137     -0.93926094      1.27007201
H       1.09516197      1.05033199      0.42209643
H       1.30825746      0.41329099     -1.27274551
H       0.35410114     -1.70482075     -0.72564660
H       0.13393294     -1.28367905      0.98118219
H      -1.22182677     -0.06837332     -1.49927709
H      -0.97535123      1.70835381      0.28642090
H      -1.74470840      0.61377064      1.47104182
H      -2.99242164      1.27680033     -1.20003006
H      -3.82908010      0.64478484      0.28833865
H      -3.21138798      2.37383966      0.18749710
H       3.26193915     -0.16213517     -0.68573666
H       1.73793389      0.39361061     -1.44403423
H       3.02362080      1.58155296     -0.98516170
H       1.30913701      1.77132244      0.69810607
H       2.87320793      1.15411656      1.30440843
H       1.03141062     -0.09296038      2.36460074
H       2.27991705     -1.01415629      1.54605397
H       0.78763791     -1.64022872     -0.31081960
H       0.14945202     -2.05489756      1.26936414
H      -1.55342291     -0.32492728      1.26532627
H      -0.68806733      0.53447488     -1.57405546
H      -0.71045024      1.51691668     -0.00370062
H      -2.96916849      0.58332397     -1.72007711
H      -2.75519898      2.06644154     -0.77537968
H      -3.19119494      0.55428006      0.08507438
H       2.44014066      1.63153060     -1.17258760
H       4.16227340      1.08695253     -1.41201237
H       3.81537829      2.37162800     -0.22800258
H       2.24881196      0.51910493      0.92258662
H       4.01296068      0.46229304      1.10408944
H       3.22958929     -1.78676341      0.54674384
H       4.30108159     -1.09163582     -0.69468950
H       2.47183208     -0.53003930     -2.17416374
H       2.52133150     -2.25182291     -1.76055948
H      -2.43628114     -1.15225716     -0.98162248
H      -2.03991554     -1.55073727      0.70235594
H      -1.97151203      1.21926236     -0.56492848
H      -1.54058224      0.83238155      1.18832905
H      -3.88679547      1.54398668      0.96122448
H      -3.76868271     -0.14916684      1.50244449
H      -5.48660377      0.42842587     -0.23043880
H      -4.18046859      0.64156237     -1.42740959
H      -4.46632678     -0.99532517     -0.62248721
