43
CC(C)(c1cc(Br)c(O)c(Br)c1)c1cc(Br)c(O)c(Br)c1.ClCC1CO1
C      -0.30112450     -2.48111885      0.04163681
C      -0.12144762     -1.05682415      0.62992931
C      -0.12556178     -1.23179038      2.17147444
C      -1.30044999     -0.20850531      0.09326056
C      -2.34343552      0.25498240      0.91462268
C      -3.39215962      1.02308659      0.38965967
Br     -4.75428775      1.60862597      1.57513525
C      -3.42307916      1.34271799     -0.96703362
O      -4.45384651      2.09555211     -1.46368460
C      -2.39971478      0.88829935     -1.79811716
Br     -2.39750690      1.29761483     -3.64967601
C      -1.35316880      0.12155322     -1.27787130
C       1.23100443     -0.39587564      0.26698830
C       2.24948828     -1.07267188     -0.42720741
C       3.45952934     -0.43704895     -0.73894238
Br      4.77504137     -1.42830209     -1.68256635
C       3.67933666      0.88710400     -0.36205847
O       4.86636759      1.49403497     -0.67589895
C       2.68258370      1.57326349      0.33085998
Br      2.93447382      3.37547633      0.86415781
C       1.47538385      0.94200785      0.64390716
Cl      1.56024293      1.60633699      0.85708567
C       1.20298102      0.18014403     -0.14065928
C      -0.05819645     -0.44151468      0.34618241
C      -1.40414743     -0.00218512     -0.16814835
O      -0.76836792     -1.19845459     -0.64333358
H      -0.22250468     -2.49405738     -1.05185980
H       0.44908391     -3.17808175      0.43410551
H      -1.28612549     -2.89176374      0.29739870
H      -1.01765066     -1.76927632      2.51482611
H       0.74583767     -1.80954670      2.50483618
H      -0.09533741     -0.27199492      2.70059407
H      -2.35967589      0.02669165      1.97718940
H      -4.30451388      2.21490588     -2.41893043
H      -0.56354596     -0.21894507     -1.94644660
H       2.12070545     -2.10636638     -0.73755266
H       4.83557548      2.40633534     -0.33560050
H       0.71072538      1.49991753      1.18286425
H       2.03927048     -0.51837666     -0.04729536
H       1.13240167      0.50695908     -1.18261714
H       0.01711520     -0.85815724      1.34168684
H      -2.26294984     -0.11659885      0.48155923
H      -1.45834965      0.84184705     -0.84446044
