88
C[C@]12CC[C@@H]3c4ccc(O)cc4C[C@@H](CCCCCCCCCS(=O)CCCC(F)(F)C(F)(F)F)[C@H]3[C@@H]1CC[C@@H]2O
C      -6.19605375     -2.71357581     -1.69728232
C      -5.09430353     -2.80979094     -0.61201590
C      -5.74338851     -2.73783200      0.77679293
C      -6.29142837     -1.33076737      1.08893312
C      -5.25664510     -0.19125421      0.86625580
C      -5.79558273      1.21344280      1.12718706
C      -6.68214239      1.45758101      2.19199635
C      -7.14974634      2.74372958      2.46838620
C      -6.71894056      3.80849689      1.69261281
O      -7.15214275      5.08012927      1.92599810
C      -5.82318738      3.60515958      0.65304507
C      -5.34655068      2.31517876      0.36638483
C      -4.41147530      2.15560015     -0.80950328
C      -3.60455589      0.84557456     -0.80196851
C      -2.40999800      0.88014773      0.18002310
C      -1.31259606      1.86628260     -0.24191346
C      -0.07187395      1.71420226      0.64206970
C       1.03918793      2.66991581      0.20636059
C       2.30825885      2.56903134      1.05950663
C       2.96732009      1.18970096      0.98583590
C       4.33633420      1.11875808      1.66846817
C       5.43499016      2.00918171      1.07705028
C       5.62175862      1.97504785     -0.43628601
S       6.11967348      0.38975722     -1.16661127
O       5.17794393     -0.68621753     -0.72012533
C       7.69238327      0.16433450     -0.28605428
C       8.47314214     -0.99023483     -0.91168904
C       9.78711558     -1.25172955     -0.16962078
C      10.61648458     -2.33081671     -0.86467666
F       9.87331873     -3.46792063     -0.95945656
F      10.86404589     -1.93111014     -2.14407957
C      11.92947244     -2.60945661     -0.13171354
F      11.71159753     -3.03389626      1.13647610
F      12.67213096     -3.55439089     -0.75123247
F      12.69390442     -1.49140480     -0.04385296
C      -4.60289876     -0.30742756     -0.54428984
C      -4.01014669     -1.71318450     -0.68724393
C      -3.22217284     -2.07282752     -1.94320464
C      -3.24097393     -3.61252146     -1.96911592
C      -4.20667052     -4.04890743     -0.84936631
O      -4.92653122     -5.21935890     -1.18482609
H      -5.78725329     -2.75574488     -2.71166941
H      -6.78240253     -1.79339857     -1.62722160
H      -6.90713677     -3.54185349     -1.59914495
H      -6.55088002     -3.47370156      0.86304081
H      -5.00707123     -2.99889381      1.54766763
H      -7.19089080     -1.13778929      0.48936610
H      -6.62275794     -1.34226211      2.13423138
H      -4.47017050     -0.34408018      1.62041315
H      -7.01799795      0.64881553      2.83541715
H      -7.83767308      2.89063407      3.29487327
H      -7.86821181      5.04402068      2.58253389
H      -5.50033008      4.45644558      0.05907563
H      -3.74282367      3.02028784     -0.87816041
H      -5.03181964      2.17764591     -1.71640094
H      -3.19030175      0.71857153     -1.81174054
H      -2.74004764      1.13019270      1.19517767
H      -1.95893438     -0.11715222      0.23329760
H      -1.03780901      1.68503710     -1.28929842
H      -1.67955744      2.89553169     -0.17091605
H       0.27692325      0.67848908      0.58110388
H      -0.33373038      1.90575078      1.68872585
H       1.29571582      2.48437943     -0.84372057
H       0.66660240      3.70017585      0.26043265
H       3.00541530      3.33775761      0.70988757
H       2.06979031      2.80594812      2.10307058
H       3.04760680      0.87012909     -0.05834997
H       2.31854939      0.45501859      1.47827797
H       4.21763273      1.37885889      2.72823040
H       4.67614143      0.07652141      1.65886110
H       6.37919558      1.76719969      1.57892298
H       5.21925151      3.04830446      1.35889372
H       4.70012734      2.27893276     -0.94376788
H       6.38976439      2.70417703     -0.72020587
H       8.26667868      1.09383462     -0.35935667
H       7.47901790     -0.04475223      0.76749033
H       8.68276634     -0.76094165     -1.96477957
H       7.86263139     -1.90329651     -0.90413852
H      10.36291544     -0.32047686     -0.12434964
H       9.56317225     -1.56074656      0.85740567
H      -5.39339084     -0.19125665     -1.29945727
H      -3.32040831     -1.86598680      0.15826092
H      -2.19758264     -1.69145765     -1.90506902
H      -3.69114873     -1.66900364     -2.84653228
H      -3.54895005     -3.97982349     -2.95438374
H      -2.24042219     -4.01667559     -1.78018285
H      -3.62598038     -4.27468887      0.05311556
H      -5.25327275     -5.13530441     -2.09638292
