94
C=CC(=O)OCCOCCOC[C@@H](CC)CCCC.C=CC(=O)OCCOCCOC[C@H](CC)CCCC
C       8.04685978      0.76260086     -1.58051926
C       6.97222274      1.28789126     -0.97774870
C       6.32770008      0.59908963      0.15975902
O       6.67691047     -0.47178771      0.62805728
O       5.29027872      1.36371261      0.57526665
C       4.52950215      0.82469521      1.67226275
C       3.56635261     -0.26548192      1.20262052
O       2.55768963      0.32534006      0.37725955
C       1.64954604     -0.65175968     -0.13455138
C       0.57463567      0.02976242     -0.98689280
O      -0.23746992      0.98289808     -0.29620009
C      -0.98366050      0.50627303      0.82055959
C      -2.09331973     -0.49917496      0.44896113
C      -2.78008802     -1.05070811      1.71656581
C      -3.59776914     -0.04079841      2.50988774
C      -3.06625282      0.12345622     -0.57817699
C      -4.16366974     -0.84045167     -1.04297148
C      -4.98322050     -0.29979019     -2.21805393
C      -5.78890507      0.94362458     -1.87344067
C       8.39726012     -1.12333719      0.17379409
C       7.52868064     -0.37789832     -0.52089759
C       6.52766331      0.46092464      0.16998257
O       6.38738976      0.54237105      1.37905297
O       5.80263709      1.10959864     -0.77272457
C       4.75804417      1.95946698     -0.26378287
C       3.52661999      1.14662340      0.13897787
O       2.91839559      0.60764597     -1.04016247
C       1.87872297     -0.33141245     -0.76202417
C       0.58898706      0.33654899     -0.28838988
O      -0.42694917     -0.65443592     -0.13668424
C      -1.65587701     -0.08605027      0.32545368
C      -2.71581691     -1.19589777      0.42496778
C      -3.06170320     -1.75023579     -0.97265306
C      -3.93972343     -2.99380644     -0.93098371
C      -3.93981759     -0.76847221      1.26662439
C      -5.03644350      0.07686599      0.60372203
C      -4.67067466      1.49861355      0.18069949
C      -4.19304696      2.37591706      1.32586723
H       8.48158939     -0.17732687     -1.25203219
H       8.51503239      1.26868440     -2.41796032
H       6.53790331      2.22398889     -1.30591583
H       5.20529050      0.44839144      2.44926661
H       3.96643826      1.66222279      2.09796100
H       3.08703372     -0.72764138      2.07263412
H       4.09223950     -1.03495664      0.62776304
H       2.20459825     -1.35953621     -0.76078102
H       1.20137812     -1.20383333      0.69733404
H      -0.06416174     -0.71806519     -1.46661641
H       1.06847579      0.58827672     -1.78985308
H      -0.30665230      0.09193104      1.57439313
H      -1.43421668      1.39504379      1.27597278
H      -1.61956781     -1.35909868     -0.04101174
H      -2.01421926     -1.47424136      2.37849512
H      -3.43061239     -1.88951794      1.44274772
H      -2.98058612      0.78925882      2.86451146
H      -4.03445044     -0.52617180      3.38901838
H      -4.42103991      0.36654640      1.91679786
H      -2.49547681      0.44441168     -1.45859620
H      -3.51677891      1.02922416     -0.15640198
H      -4.84176999     -1.07268467     -0.21420015
H      -3.70319050     -1.78647101     -1.35335654
H      -5.67539728     -1.08332504     -2.54855087
H      -4.32304997     -0.08341253     -3.06596708
H      -6.43507356      0.76588368     -1.00783607
H      -6.42371377      1.22608275     -2.71935300
H      -5.13736427      1.79365537     -1.65110751
H       8.39701997     -1.13445700      1.26038028
H       9.12958939     -1.74077346     -0.33542640
H       7.52799212     -0.36818556     -1.60397696
H       5.13297410      2.55385346      0.57757097
H       4.50169322      2.65314235     -1.07160611
H       3.80189269      0.32864868      0.81287895
H       2.81169004      1.80732738      0.63890271
H       1.67595548     -0.87390309     -1.69296544
H       2.22065631     -1.08641101     -0.04300822
H       0.75042905      0.84284550      0.66937948
H       0.27278644      1.09130394     -1.01811557
H      -1.96372529      0.69610092     -0.37232674
H      -1.48075199      0.35915117      1.31080622
H      -2.23704358     -2.02020073      0.97451143
H      -2.13691992     -2.01561157     -1.49966462
H      -3.54756020     -0.97931858     -1.58113047
H      -3.46454667     -3.78837226     -0.34740949
H      -4.10073764     -3.37247048     -1.94561482
H      -4.92087692     -2.78764936     -0.49491662
H      -4.42686661     -1.68964905      1.61533025
H      -3.59640505     -0.27407963      2.18394699
H      -5.43840699     -0.45223133     -0.26735941
H      -5.87240521      0.14290054      1.31314729
H      -5.56580483      1.96265551     -0.25285860
H      -3.92713235      1.48493004     -0.62016257
H      -3.24900382      2.01911048      1.74535294
H      -4.93546059      2.40877485      2.12918073
H      -4.03337945      3.39953838      0.97221103
