103
CCCCCCCC/C=C\CCCCCCCCNC(=O)CCCCCCCCCCCCCCC
C      14.35056402     -4.48523426     -1.65172875
C      13.80314778     -3.10968443     -1.30532947
C      12.74103090     -3.19011114     -0.20923506
C      12.20022845     -1.80336048      0.14681789
C      11.12848091     -1.88992227      1.23541842
C      10.65083483     -0.52199293      1.73153060
C       9.90849574      0.28947991      0.66656742
C       9.35353850      1.59006503      1.25437738
C       8.64488110      2.40139724      0.20650376
C       7.33582404      2.69363886      0.13569249
C       6.24924972      2.28493013      1.09003443
C       5.31350999      1.21554117      0.51490682
C       4.52127507      1.62552656     -0.73298670
C       3.62835461      2.86115199     -0.57446721
C       2.58749683      2.78433160      0.54727446
C       1.60661281      1.61075195      0.45621547
C       0.77313212      1.54228216     -0.82951369
C      -0.11663189      2.76074899     -1.08209293
N      -1.07695971      2.98109864     -0.02077201
C      -2.23936022      2.24305660      0.07223063
O      -2.57405626      1.40472452     -0.75585718
C      -3.04150067      2.57364387      1.31859725
C      -4.36230367      1.80983199      1.41572047
C      -5.42942730      2.36707732      0.46737260
C      -6.79109915      1.68085001      0.61992547
C      -6.81695893      0.18145421      0.30313367
C      -6.34307262     -0.20549586     -1.10141575
C      -7.10670356      0.44276385     -2.25751460
C      -8.61822653      0.18846325     -2.31160161
C      -9.01803492     -1.25444943     -2.64460691
C      -9.23736149     -2.18471345     -1.44748667
C     -10.45246302     -1.80397686     -0.59562206
C     -10.67200135     -2.81790169      0.53096724
C     -11.81204413     -2.43616931      1.47963593
C     -13.18901225     -2.46135421      0.81488646
C     -14.29568005     -2.18680739      1.82163221
H      15.10953675     -4.40369351     -2.43570378
H      13.55565638     -5.14392714     -2.01613286
H      14.81304756     -4.95616859     -0.77809939
H      14.62810865     -2.46598664     -0.97889698
H      13.37503198     -2.65581100     -2.20665846
H      13.17224393     -3.65596773      0.68542398
H      11.91661162     -3.83207608     -0.54249331
H      13.02403306     -1.16733275      0.49123615
H      11.78385953     -1.33871006     -0.75347236
H      11.53389523     -2.43983971      2.09339607
H      10.27213971     -2.46752180      0.86677490
H       9.98369787     -0.68428524      2.58742733
H      11.50726045      0.05312152      2.10384765
H      10.58455710      0.52514845     -0.16375721
H       9.08644065     -0.30987658      0.25558236
H       8.70220596      1.35785574      2.10174433
H      10.17637971      2.19479582      1.65499143
H       9.28832326      2.79271012     -0.58185225
H       7.00718511      3.30555241     -0.70412660
H       6.66921559      1.90233370      2.02526904
H       5.68076230      3.17791344      1.37374838
H       5.90207433      0.32173864      0.26881756
H       4.61512746      0.90530608      1.30130623
H       5.21674643      1.80589588     -1.56178044
H       3.90735463      0.77250103     -1.04741633
H       4.25702547      3.74314718     -0.40326608
H       3.12100017      3.04639180     -1.52890167
H       2.02712867      3.72654978      0.56638150
H       3.10069620      2.73107038      1.51477053
H       2.15657701      0.66833951      0.56247530
H       0.93284096      1.65686149      1.32063624
H       0.14603545      0.64315292     -0.77635595
H       1.43365324      1.40085730     -1.69267871
H       0.47758465      3.67387890     -1.18218852
H      -0.66438058      2.61955697     -2.02085265
H      -0.80655159      3.56770320      0.75733934
H      -3.21936217      3.65451814      1.35469940
H      -2.41942749      2.30688283      2.18176171
H      -4.73214861      1.88675992      2.44561670
H      -4.18892455      0.74660313      1.21678837
H      -5.09165227      2.30068512     -0.57212037
H      -5.56521048      3.43593137      0.67662292
H      -7.14479924      1.82107221      1.64927080
H      -7.51639607      2.19904843     -0.01807326
H      -6.20300139     -0.35508874      1.03588777
H      -7.83821690     -0.18330814      0.45893773
H      -6.38459247     -1.29516962     -1.20378493
H      -5.28170964      0.05037025     -1.20468021
H      -6.65729694      0.10437645     -3.19975736
H      -6.94384684      1.52697867     -2.22827988
H      -9.10496759      0.54689337     -1.40095372
H      -9.00742320      0.82186423     -3.12013973
H      -8.26802193     -1.69955051     -3.30947986
H      -9.95217376     -1.22598758     -3.22082565
H      -8.34305561     -2.22831986     -0.82045676
H      -9.38929372     -3.19991328     -1.83619335
H     -11.33883661     -1.75856777     -1.23790753
H     -10.31422554     -0.80945187     -0.15871827
H      -9.75022075     -2.90046698      1.12092034
H     -10.86503815     -3.81046443      0.10526005
H     -11.80775464     -3.14200689      2.31955421
H     -11.62198077     -1.44210137      1.90209457
H     -13.36056435     -3.43900959      0.35043590
H     -13.24381964     -1.70808297      0.02208260
H     -14.16805868     -1.20390053      2.28680816
H     -15.27184209     -2.20392125      1.32590595
H     -14.30300250     -2.94295482      2.61297846
