78
CCc1cc(C)cc(CC)c1Nc1ccc(Nc2c(CC)cc(C)cc2CC)c2c1C(=O)c1ccccc1C2=O
C       4.59766694     -3.20626603     -1.04256289
C       3.65201361     -3.02532589      0.13597529
C       4.04302271     -1.84365549      0.99713103
C       4.84945718     -2.07405036      2.12498018
C       5.27318734     -1.01992272      2.93768641
C       6.16231234     -1.27862720      4.11758703
C       4.91114826      0.28583900      2.59579796
C       4.10488680      0.55191295      1.47411053
C       3.77721598      1.99503616      1.16004350
C       4.81289483      2.62444571      0.24007080
C       3.66634478     -0.52170770      0.66756140
N       2.83697292     -0.29412742     -0.46060164
C       1.42140729     -0.12750840     -0.42362763
C       0.67073283     -0.70652859      0.60709260
C      -0.72391432     -0.65644051      0.60308013
C      -1.42484259     -0.02579361     -0.43231115
N      -2.84865259     -0.09076285     -0.47823813
C      -3.69925362     -0.25262936      0.64559375
C      -4.06977814      0.85523735      1.43987499
C      -3.64692945      2.27086038      1.11397157
C      -4.63822677      2.95903375      0.18710310
C      -4.89775045      0.65378179      2.55913363
C      -5.34774723     -0.62179157      2.91045166
C      -6.25782566     -0.80764201      4.08802778
C      -4.99103087     -1.70923646      2.10968700
C      -4.16511459     -1.54351225      0.98449621
C      -3.84958856     -2.75677447      0.13642476
C      -4.78403016     -2.87342905     -1.05928439
C      -0.67959183      0.54972577     -1.48818398
C       0.72579410      0.49951791     -1.48381464
C       1.47971786      1.14427618     -2.59005834
O       2.69265457      1.31669419     -2.51297810
C       0.76355178      1.60469934     -3.79054962
C       1.48245121      2.01687242     -4.92022801
C       0.80377355      2.47059518     -6.05245142
C      -0.58972263      2.52020530     -6.05669042
C      -1.30553716      2.11642598     -4.92851251
C      -0.62434934      1.65435426     -3.79480233
C      -1.37854108      1.24676483     -2.59870499
O      -2.57645874      1.50597557     -2.52837644
H       4.29980726     -4.07701684     -1.63521290
H       4.59074364     -2.33132098     -1.70084726
H       5.62732592     -3.36266499     -0.70350232
H       2.62264949     -2.91807145     -0.22230556
H       3.65261088     -3.93946487      0.74306410
H       5.15569379     -3.09058347      2.36592203
H       7.21204289     -1.23779105      3.81136087
H       5.95877875     -2.26303140      4.55216831
H       5.99312931     -0.53592392      4.90436159
H       5.26413016      1.11346889      3.20901834
H       2.78035766      2.08204569      0.71646095
H       3.72569385      2.56934577      2.09399076
H       5.80845214      2.61237202      0.69701934
H       4.87827685      2.09396700     -0.71537239
H       4.54924512      3.66621644      0.03157362
H       3.25032216      0.42414622     -1.07095318
H       1.16493898     -1.22585587      1.42548790
H      -1.25882501     -1.13841357      1.41873299
H      -3.20454520      0.65450745     -1.09234811
H      -3.55863288      2.84801004      2.04316011
H      -2.64602785      2.28839333      0.67149514
H      -4.30757193      3.98008982     -0.02822026
H      -4.73524787      2.42706656     -0.76454948
H      -5.63322761      3.01418716      0.64168437
H      -5.19809331      1.50877061      3.16275880
H      -6.00870693     -0.10123901      4.88728895
H      -7.29796296     -0.65029010      3.78584779
H      -6.15972450     -1.81586729      4.50434658
H      -5.36539174     -2.70082098      2.35795372
H      -3.93146308     -3.66462336      0.74747765
H      -2.80847312     -2.73028244     -0.20219433
H      -4.54859789     -3.77355269     -1.63617993
H      -5.82975478     -2.93917441     -0.74013339
H      -4.69104521     -2.01085875     -1.72751796
H       2.57078367      1.98713481     -4.92235716
H       1.36285351      2.78887589     -6.92975785
H      -1.11965622      2.87723776     -6.93712272
H      -2.39320904      2.16448991     -4.93650384
