59
Cc1ccc(S(=O)(=O)Oc2ccc(Nc3cc(S(=O)(=O)[O-])c(N)c4c3C(=O)c3ccccc3C4=O)cc2)cc1.[Na+]
C      -3.59273602     -4.01871680      1.47521179
C      -4.20229930     -2.66183855      1.26662542
C      -3.56216050     -1.53095564      1.79467064
C      -4.08732883     -0.25622242      1.58146224
C      -5.24116958     -0.11238881      0.80481876
S      -5.86987059      1.51780215      0.44732304
O      -7.28283962      1.36547011      0.14056740
O      -5.47013069      2.40017829      1.52963698
O      -5.11531381      1.97646511     -0.93630733
C      -3.74752402      1.97081334     -0.96502160
C      -3.09739946      0.91878336     -1.60176374
C      -1.70572840      0.83705697     -1.54347675
C      -0.95235752      1.81707522     -0.88561295
N       0.43166003      1.69861021     -0.68887746
C       1.24662354      0.58754205     -0.37188818
C       0.68516725     -0.63932427     -0.01554043
C       1.48164723     -1.76164259      0.25754170
S       0.56106982     -3.28616029      0.62707263
O      -0.36968752     -3.35387707     -0.49703510
O       1.58362942     -4.33176748      0.63519119
O      -0.03918306     -2.97435336      1.92089642
C       2.87902735     -1.71299730      0.15200284
N       3.69095315     -2.76266080      0.63038250
C       3.45912718     -0.47138839     -0.20786616
C       2.65877795      0.66743978     -0.44007709
C       3.31367898      1.98017653     -0.69943357
O       2.65562532      3.00312001     -0.87312568
C       4.78150573      2.08397729     -0.70602241
C       5.39240476      3.33651885     -0.86969753
C       6.78428621      3.44497162     -0.87759665
C       7.57042404      2.30469411     -0.72613318
C       6.96314649      1.05845725     -0.56615401
C       5.56426576      0.94946924     -0.55277427
C       4.93485747     -0.37111323     -0.39642460
O       5.65376639     -1.36349552     -0.46904281
C      -1.62665183      2.90823093     -0.31838158
C      -3.02030923      2.99008062     -0.35826770
C      -5.89846956     -1.23157882      0.28355560
C      -5.37384534     -2.50432138      0.51435345
Na      0.00000000      0.00000000      0.00000000
H      -4.26962450     -4.81394230      1.14483725
H      -2.66232842     -4.10666431      0.90734787
H      -3.38501606     -4.18348613      2.53776764
H      -2.63060837     -1.64882388      2.35131271
H      -3.56653774      0.60805734      1.98810541
H      -3.65753312      0.12954696     -2.09549477
H      -1.21297173     -0.01441482     -2.00968397
H       0.94126590      2.58665337     -0.67971108
H      -0.39101500     -0.75676910      0.09278312
H       4.60235953     -2.81265147      0.17230416
H       3.18295077     -3.66587623      0.62086715
H       4.78495887      4.23173958     -0.99012561
H       7.25280813      4.41798724     -1.00360816
H       8.65493172      2.38282248     -0.73408396
H       7.58212465      0.17012751     -0.45213084
H      -1.06642899      3.67894423      0.20574249
H      -3.52594236      3.82336930      0.12265158
H      -6.80018282     -1.12444289     -0.31443035
H      -5.86984962     -3.37430730      0.08941725
