82
CC(COS)(COS)COC(=O)CCCC(=O)OCC(C)(COS)COS.CCC(COP)(COS)COS
C      -6.80953049     -0.49095014     -1.11433083
C      -5.65091407      0.18441348     -0.34808480
C      -6.07535575      1.59525321      0.12573162
O      -6.51849016      2.37085756     -0.99031557
S      -7.02318601      3.90948915     -0.60286732
C      -5.32093750     -0.69096686      0.88384643
O      -4.38424855     -0.04155636      1.74217149
S      -3.98301449     -0.92124163      3.10289271
C      -4.44377796      0.27921211     -1.31288811
O      -3.32496565      0.97302146     -0.73828333
C      -2.25583894      0.21730680     -0.35738731
O      -2.18755523     -1.00135398     -0.43953067
C      -1.15331535      1.11747587      0.15541946
C      -0.25554028      0.43196604      1.18937839
C       0.75897069     -0.55117632      0.59753659
C       1.90703871      0.12692895     -0.11459586
O       1.97361873      1.31923843     -0.37443156
O       2.85086759     -0.80729105     -0.42544515
C       4.03546061     -0.34481332     -1.09933788
C       5.30230008     -0.85131562     -0.36689287
C       5.27721516     -2.38954699     -0.25627736
C       5.36558960     -0.27085125      1.06457982
O       5.38413987      1.15684351      1.00399195
S       5.41676457      1.90833914      2.48988833
C       6.53373074     -0.39793465     -1.18559412
O       7.73461497     -0.82055288     -0.53639506
S       9.13374017     -0.32910279     -1.29435440
C       2.23883228      0.99624973     -0.69425418
C       1.46650695      0.29882635      0.41943609
C       0.01799307     -0.14988242      0.06181431
C      -0.84001379      1.02719886     -0.46044320
O      -0.82669313      2.09452659      0.48953989
P      -1.56080291      3.48052086      0.07015947
C       0.06060502     -1.25876846     -1.01726824
O      -1.26445639     -1.71370104     -1.30205594
S      -1.34682487     -2.92260948     -2.44540819
C      -0.65274376     -0.69697754      1.35203030
O       0.05649952     -1.84853875      1.81848040
S      -0.46696515     -2.42695489      3.28959582
H      -7.05580258      0.05064883     -2.03610539
H      -7.71837423     -0.52897507     -0.50252297
H      -6.55044145     -1.51911305     -1.39425954
H      -6.89413595      1.50852506      0.85323537
H      -5.23928298      2.10981488      0.61278111
H      -8.33709058      3.66209458     -0.47769433
H      -4.91507225     -1.65930818      0.55743541
H      -6.24308842     -0.88380979      1.45110286
H      -2.91447848     -1.56600061      2.60254207
H      -4.72259050      0.84858572     -2.20818839
H      -4.15712258     -0.71650452     -1.67245190
H      -0.58534309      1.48881056     -0.70209486
H      -1.62653460      1.97712516      0.64564246
H       0.28319753      1.20475084      1.75161769
H      -0.88217447     -0.10595463      1.91200347
H       0.28426513     -1.24946340     -0.09733379
H       1.18984379     -1.12856124      1.42569390
H       3.99929504     -0.76147570     -2.11301241
H       4.05801075      0.74671050     -1.20055951
H       5.23218142     -2.85437289     -1.24927535
H       6.16770140     -2.77302198      0.25502549
H       4.40828427     -2.74059607      0.31195619
H       6.26665560     -0.62596395      1.58364019
H       4.49040101     -0.60098542      1.64268453
H       6.74887075      2.03718829      2.61465893
H       6.49511550     -0.84574584     -2.18817308
H       6.54023723      0.69591977     -1.29933552
H       9.39009168     -1.45201372     -1.98605515
H       3.24349358      1.25152079     -0.34256075
H       1.75783181      1.92987410     -1.00011535
H       2.35267236      0.35567964     -1.57325653
H       2.05173294     -0.57467249      0.73488647
H       1.44006074      0.97274597      1.28525565
H      -0.45464372      1.37514629     -1.42794485
H      -1.87800178      0.70156044     -0.61589254
H      -0.75438732      3.82761453     -1.04221073
H      -2.61310635      2.95996739     -0.72001293
H       0.67444250     -2.10340839     -0.67740718
H       0.50130481     -0.86850505     -1.94282719
H      -1.30799633     -3.97718441     -1.61469682
H      -1.69670857     -0.97487447      1.15673865
H      -0.64586201      0.07343736      2.13385448
H       0.44723049     -1.82879149      4.06456309
