56
CO[C@@]1(NC(=O)C(C(=O)O)c2ccc(O)cc2)C(=O)N2C(C(=O)O)=C(CSc3nnnn3C)CO[C@@H]21
C      -2.65863601      1.66659686      3.10129084
O      -1.69333943      2.23268807      2.23142023
C      -0.73654273      1.32314206      1.61604642
N      -1.32260179      0.37193855      0.62176477
C      -1.86910066     -0.84452857      0.98711859
O      -2.02674950     -1.13918457      2.17182999
C      -2.17626087     -1.80960478     -0.15676354
C      -3.15800297     -2.89222952      0.23587084
O      -3.01905454     -4.09629197      0.03273743
O      -4.31195067     -2.44375854      0.78047094
C      -2.59046275     -1.13500507     -1.46219396
C      -1.80237074     -1.29488273     -2.61089159
C      -2.14705622     -0.65480612     -3.79843135
C      -3.28702899      0.13751709     -3.84895250
O      -3.58314695      0.74149639     -5.03182614
C      -4.09051205      0.30298729     -2.72939456
C      -3.74282194     -0.33309949     -1.53802030
C       0.47808192      2.13482547      0.98028370
O       0.68860682      2.74218921     -0.04780460
N       1.31817532      1.75994838      1.99045047
C       2.63865279      1.44467950      1.75160196
C       3.48021591      2.52637253      1.16960434
O       4.19214078      2.45953616      0.18882758
O       3.38006770      3.65404111      1.90510962
C       3.13791281      0.21874505      2.02763047
C       4.56951335     -0.21883716      1.81705954
S       5.01600148     -0.58123452      0.08897324
C       3.60158742     -1.34227029     -0.52712760
N       3.07258804     -2.47066883     -0.12634905
N       1.90918139     -2.61868850     -0.83847631
N       1.72749053     -1.59979181     -1.66762882
N       2.80656014     -0.81068826     -1.49884502
C       2.92436096      0.42287882     -2.23042415
C       2.24482163     -0.84263676      2.62683994
O       0.89041043     -0.61551644      2.25982624
C       0.42785672      0.72402366      2.52237735
H      -2.18668392      1.01680959      3.84538679
H      -3.40580836      1.11956886      2.52363281
H      -3.16013012      2.48142898      3.62497042
H      -1.12661620      0.53847025     -0.36307930
H      -1.21946838     -2.32993163     -0.32016775
H      -4.82722491     -3.26720198      0.95657391
H      -0.91051790     -1.91912332     -2.59422113
H      -1.52653707     -0.77913542     -4.68506653
H      -4.45585189      1.16267231     -4.96154744
H      -4.97726502      0.92487723     -2.75947763
H      -4.37553418     -0.19128803     -0.66556814
H       3.90966122      4.31501339      1.41342338
H       4.78313260     -1.11309998      2.41302536
H       5.25471254      0.55572099      2.18651985
H       2.50503464      1.22497123     -1.61512857
H       2.36220550      0.34381054     -3.16618811
H       3.97356015      0.61361346     -2.45833748
H       2.33381869     -0.84334627      3.71872542
H       2.50897824     -1.84235011      2.27531253
H       0.25194705      0.86863767      3.59610343
