84
COC(=O)C1C2CC3c4[nH]c5cc(OC)ccc5c4CCN3CC2CC(OC(=O)c2cc(OC)c(OC)c(OC)c2)C1OC
C       1.16321159      1.31573799     -4.62335694
O       0.97704825      0.41722089     -3.52782196
C       0.50041951      1.00562945     -2.39504845
O       0.25427674      2.19725781     -2.26856524
C       0.29577742     -0.03185607     -1.31237797
C       1.07824250      0.37090379     -0.03669620
C       2.58039292      0.08052697     -0.18886513
C       3.35617636      0.35622333      1.11552609
C       4.78950060     -0.04982577      0.95955464
N       5.73497924      0.62066130      0.23379671
C       6.92830658     -0.07027286      0.27005009
C       8.15598875      0.22049403     -0.34645360
C       9.21817697     -0.66582823     -0.13432044
O      10.47542655     -0.54278772     -0.66953586
C      10.65610417      0.46880972     -1.65206987
C       9.04956669     -1.78433629      0.68626494
C       7.82209886     -2.05917647      1.30058803
C       6.73732949     -1.19253000      1.08140864
C       5.38718775     -1.16171309      1.51652903
C       4.62596055     -2.06454463      2.42400301
C       3.10378525     -1.79148263      2.31535963
N       2.78299406     -0.34454512      2.28948271
C       1.35432398     -0.07319874      2.44415404
C       0.51883547     -0.36570949      1.19011612
C      -0.95671634     -0.01680443      1.43437517
C      -1.66774603      0.53719852      0.19534845
O      -3.08119979      0.37462044      0.43244217
C      -3.90436689      1.23292363     -0.21358765
O      -3.57350118      2.09812343     -1.00478935
C      -5.30149855      1.00494487      0.23288716
C      -6.20125968      2.07833773      0.15518324
C      -7.51839209      1.91933763      0.58349735
O      -8.46757288      2.90950435      0.57349743
C      -8.01632113      4.23947711      0.35458545
C      -7.93263524      0.65892637      1.05285292
O      -9.22313796      0.48971674      1.50812995
C     -10.08706747      0.18883346      0.41225219
C      -7.03671961     -0.42264899      1.14092835
O      -7.54912031     -1.59772553      1.62669210
C      -6.65492568     -2.69279907      1.78223027
C      -5.71826541     -0.24152977      0.72288334
C      -1.22630341     -0.18505567     -1.09209079
O      -1.56094536     -1.58483615     -0.95670857
C      -1.72072695     -2.24352507     -2.20540369
H       0.19055691      1.60151614     -5.03986965
H       1.73303108      0.79146229     -5.39563461
H       1.72827780      2.20366720     -4.31904919
H       0.70607638     -0.98469546     -1.66894369
H       0.97546010      1.45309808      0.13024171
H       2.99245871      0.69774306     -0.99845442
H       2.72803121     -0.96124960     -0.50560031
H       3.32382784      1.43428868      1.32370000
H       5.58558053      1.48411535     -0.26919119
H       8.25204472      1.11056935     -0.95644946
H       9.96002767      0.34269578     -2.48715983
H      11.67144507      0.37275701     -2.04943083
H      10.56425382      1.46571990     -1.20954206
H       9.88648697     -2.45966224      0.84879960
H       7.71293603     -2.93358539      1.93325484
H       4.82918033     -3.11485662      2.18741553
H       4.95465053     -1.88348994      3.45480635
H       2.70833695     -2.29581754      1.42395265
H       2.62370135     -2.26328360      3.18174168
H       1.24346392      0.98595503      2.71203784
H       0.95492258     -0.63249647      3.30000388
H       0.56753705     -1.44580376      0.98828463
H      -1.06165231      0.72145134      2.24064321
H      -1.47533716     -0.91059060      1.80846918
H      -1.43493209      1.60785541      0.11415276
H      -5.84633688      3.02679857     -0.23660390
H      -8.86610514      4.91177396      0.51085551
H      -7.67586759      4.36621307     -0.67855543
H      -7.23674050      4.52043045      1.07049392
H     -11.07737059     -0.03944283      0.81973670
H      -9.74129532     -0.69169438     -0.14259408
H     -10.18774233      1.04513467     -0.26381356
H      -6.25037958     -3.01036594      0.81500570
H      -7.22082464     -3.53290458      2.19670125
H      -5.85234519     -2.45062257      2.48661378
H      -5.00159108     -1.05517110      0.76281420
H      -1.80444613      0.21522673     -1.93422919
H      -2.54128466     -1.79516071     -2.77331647
H      -0.79946030     -2.21013221     -2.79097204
H      -1.96626435     -3.29012430     -2.01056564
