65
O=P(OCc1ccccc1)(OCc1ccccc1)OP(=O)(OCc1ccccc1)OCc1ccccc1
O      -0.86190370     -1.03538380     -2.67670898
P      -1.17602603     -0.60275481     -1.28116306
O      -2.15673249     -1.60736582     -0.49458282
C      -3.27179806     -2.07950406     -1.22773527
C      -4.43033413     -2.23886374     -0.28219006
C      -5.49261196     -1.32327222     -0.28806726
C      -6.56370178     -1.47744943      0.59470996
C      -6.58077655     -2.54339749      1.49364883
C      -5.52482817     -3.45283174      1.51566948
C      -4.45265595     -3.29986432      0.63462337
O      -1.93346752      0.80923860     -1.16175463
C      -2.33022853      1.25124863      0.12293917
C      -2.69574861      2.71204089      0.07568940
C      -1.90890885      3.63074692     -0.63493497
C      -2.23374423      4.98817850     -0.64308638
C      -3.34182384      5.44454501      0.06752936
C      -4.12654994      4.54399127      0.78534682
C      -3.80377465      3.18532820      0.79364351
O       0.07011934     -0.47665304     -0.29846462
P       1.39898006      0.26788938     -0.76073004
O       1.20673711      1.62444321     -1.35957766
O       2.28983133      0.27207663      0.57944243
C       1.93269418      1.22765393      1.55782988
C       2.86608053      1.08718072      2.72836168
C       2.77998188     -0.02954462      3.57280868
C       3.64984620     -0.16607480      4.65613523
C       4.61459672      0.80889583      4.90431727
C       4.71492869      1.91817062      4.06734709
C       3.84649712      2.05671987      2.98239026
O       2.15970571     -0.80593297     -1.67550240
C       3.31712284     -0.33548551     -2.33518317
C       4.09001655     -1.51038781     -2.86782239
C       4.10959713     -1.79153953     -4.24140422
C       4.83684684     -2.87829558     -4.73038951
C       5.54412720     -3.69736879     -3.85241827
C       5.52195289     -3.43435854     -2.48299295
C       4.79684288     -2.34754849     -1.99167548
H      -3.53298908     -1.39184451     -2.04005684
H      -3.01846025     -3.04433524     -1.67878607
H      -5.49662254     -0.48423110     -0.98185214
H      -7.38740852     -0.76805721      0.57725556
H      -7.41791991     -2.66561133      2.17792371
H      -5.53582207     -4.28300796      2.21770464
H      -3.63116806     -4.01277968      0.66543557
H      -1.52250809      1.11482105      0.84891753
H      -3.19038563      0.65570602      0.44358068
H      -1.03958350      3.29277641     -1.19647391
H      -1.62015080      5.68690500     -1.20607166
H      -3.59496605      6.50122462      0.06030093
H      -4.99082141      4.90020421      1.34043841
H      -4.42676629      2.49949382      1.36373424
H       1.99715908      2.23425525      1.13094048
H       0.89968395      1.06480094      1.88409819
H       2.03742351     -0.80282761      3.38405273
H       3.57764154     -1.03545753      5.30476100
H       5.29247594      0.70138801      5.74754056
H       5.47147507      2.67509827      4.25824310
H       3.94340517      2.92610565      2.33496948
H       3.94844944      0.23740316     -1.64633324
H       3.01640169      0.33472785     -3.14787892
H       3.55540108     -1.16709455     -4.93902681
H       4.84820487     -3.08811401     -5.79736423
H       6.10785417     -4.54388315     -4.23566451
H       6.06817144     -4.07574480     -1.79648242
H       4.78093504     -2.15639265     -0.91995434
