107
CC(C)(C)NC(=O)C1CC2CCCCC2CN1CC(O)C(Cc1ccccc1)NC(=O)C(CC(N)=O)NC(=O)c1ccc2ccccc2n1.CS(=O)(=O)[O-]
C      -5.36950530      4.40501254     -1.78569114
C      -4.82768193      3.06749747     -2.31720950
C      -3.80373223      3.32373986     -3.43230176
C      -6.00621662      2.26906674     -2.90245511
N      -4.23689277      2.26556556     -1.24151515
C      -3.15314659      2.63992048     -0.46421564
O      -2.64016262      3.75184865     -0.48601404
C      -2.69886519      1.52269763      0.50647880
C      -3.66888182      1.60179183      1.70632540
C      -3.49596763      0.43999445      2.69108307
C      -4.51348646      0.51531674      3.84447704
C      -5.57797904     -0.58026689      3.81247109
C      -6.09343066     -0.81334501      2.40102868
C      -4.98281735     -1.22313498      1.43228995
C      -3.56358207     -0.89337594      1.93660693
C      -2.53657406     -0.89677795      0.79687895
N      -2.74660887      0.18376110     -0.17017603
C      -1.83016712      0.08994437     -1.34156056
C      -0.28912838     -0.10693013     -1.20675536
O       0.20317139      0.88369579     -0.29472524
C       0.25187508     -1.53403847     -0.86039684
C      -0.47918685     -2.66943611     -1.61191970
C      -0.07569978     -4.06511566     -1.18221209
C       0.45627181     -4.96855718     -2.11023016
C       0.78306883     -6.27033022     -1.72527720
C       0.59080760     -6.67915143     -0.40699796
C       0.06761189     -5.78794913      0.52696677
C      -0.27203074     -4.49042614      0.14024808
N       1.69697981     -1.61476963     -1.16739268
C       2.67901270     -1.03349413     -0.40410715
O       2.41117862     -0.38301448      0.60755695
C       4.12325853     -1.23309756     -0.91082062
C       4.58979219     -2.66753037     -0.67997835
C       4.03111173     -3.60895037     -1.72151742
N       4.39017244     -4.91378712     -1.55638737
O       3.29624696     -3.26714642     -2.64340459
N       4.95993990     -0.28093834     -0.18392671
C       6.16038411      0.17537341     -0.68077574
O       6.73616695     -0.33726973     -1.63262685
C       6.69566712      1.38842425      0.01699499
C       7.86077986      1.98458766     -0.43130674
C       8.28762106      3.13840931      0.21640406
C       7.53807152      3.65921946      1.28171724
C       7.92297712      4.83198319      1.95709838
C       7.15426139      5.32575380      3.00992969
C       5.99990716      4.65341126      3.39493300
C       5.61652342      3.49055279      2.72074656
C       6.36253188      2.97564988      1.66758427
N       5.94354193      1.85838396      1.05092902
C      -0.87523153      0.02326416      0.01081585
S       0.89346963     -0.02384621     -0.01065496
O       1.24092978      1.09609384     -0.88092445
O       1.24373662      0.15295128      1.39732669
O       1.18156903     -1.34712388     -0.56010084
H      -4.56949029      5.05646180     -1.42316124
H      -5.90232152      4.95642368     -2.57004565
H      -6.06656483      4.24721544     -0.95495562
H      -4.26200167      3.84623622     -4.28089558
H      -3.38351276      2.38133374     -3.80279990
H      -2.96749330      3.93717539     -3.08260633
H      -6.75226087      2.04629485     -2.13038038
H      -6.50891693      2.82008757     -3.70662846
H      -5.66587805      1.31052077     -3.31144772
H      -4.37599746      1.25852524     -1.25617544
H      -1.68655439      1.75160680      0.85211137
H      -3.50311992      2.55140411      2.23388714
H      -4.70843560      1.63261579      1.35471699
H      -2.49412750      0.53858735      3.13314036
H      -3.98166509      0.43848591      4.80077676
H      -5.00157961      1.49737368      3.85762372
H      -5.15903910     -1.51418582      4.20762463
H      -6.40539573     -0.30500503      4.47711183
H      -6.56784423      0.10665489      2.03687177
H      -6.87829548     -1.57873419      2.40526038
H      -5.03907604     -2.30475563      1.25232527
H      -5.18367871     -0.75558720      0.46082795
H      -3.27188077     -1.68904588      2.63617738
H      -2.60952676     -1.86457464      0.29201662
H      -1.53752722     -0.82605223      1.24014736
H      -1.95703215      0.99928924     -1.94283027
H      -2.23260331     -0.68841261     -1.99805447
H       0.13596074      0.16352148     -2.18381659
H       1.02274120      0.55208238      0.12511093
H       0.17525371     -1.68074705      0.22141982
H      -0.31668158     -2.54756669     -2.69088180
H      -1.56027249     -2.61602958     -1.46266164
H       0.61696804     -4.67019704     -3.14536461
H       1.18262302     -6.96863949     -2.45550732
H       0.84398902     -7.69324343     -0.10704104
H      -0.09606832     -6.10702462      1.55055560
H      -0.69844789     -3.81778951      0.87919630
H       1.98794581     -2.13835974     -1.99678528
H       4.15942964     -0.95676342     -1.97231544
H       4.28313854     -3.02047371      0.31276347
H       5.68359603     -2.73033682     -0.73438607
H       3.96187188     -5.59574423     -2.16760827
H       4.82898072     -5.24568381     -0.70659337
H       4.52547739      0.28846930      0.54645702
H       8.41739089      1.56850720     -1.26554866
H       9.19608021      3.63187506     -0.12157549
H       8.82308776      5.36868413      1.66240466
H       7.45208367      6.23583871      3.52555874
H       5.39135379      5.03328338      4.21354600
H       4.70812858      2.97362948      3.02558335
H      -1.24475656     -0.76968535      0.66559510
H      -1.19456846      0.99908645      0.38386742
H      -1.24514852     -0.13074029     -1.00592481
