76
CCCCN(CCCC)c1ccc2c(c1)Oc1cc(C)c(Nc3ccccc3)cc1C21OC(=O)c2ccccc21
C       6.37899480     -3.78077595      0.39327451
C       5.99091079     -2.53319830      1.16902297
C       5.26821264     -1.52126076      0.28070600
C       4.92448902     -0.24753424      1.06046503
N       4.22894691      0.73671776      0.21217008
C       5.06795503      1.48374627     -0.73861296
C       4.65898498      2.95921232     -0.82873803
C       4.73358323      3.72462993      0.49669484
C       6.14409017      3.82538410      1.05786649
C       2.88297141      0.48341423     -0.06599016
C       2.35999365      0.45992813     -1.36428307
C       1.00649275      0.18827221     -1.61137853
C       0.11936464     -0.05077908     -0.55526876
C       0.61813171      0.01240474      0.74430945
C       1.97502029      0.26195250      0.98166911
O      -0.17244879     -0.15619934      1.85875184
C      -1.53207089     -0.02798887      1.70278227
C      -2.27254242      0.18632570      2.86480439
C      -3.66856185      0.33811553      2.81396286
C      -4.41596685      0.59656178      4.09347503
C      -4.33336340      0.24664597      1.57445981
N      -5.72872045      0.41979706      1.49558599
C      -6.54476456      0.94917731      0.47981401
C      -7.87126172      0.50818242      0.37228971
C      -8.70858200      0.97761788     -0.64521743
C      -8.22660639      1.89246727     -1.57461522
C      -6.90864561      2.33369228     -1.48900230
C      -6.07556918      1.86008221     -0.47288363
C      -3.56555308      0.02927419      0.41833734
C      -2.16673603     -0.11352974      0.46588861
C      -1.33563736     -0.41888963     -0.76332484
O      -1.85806013      0.33984129     -1.88906174
C      -2.28666593     -0.46794866     -2.90283991
O      -2.75410477     -0.10872543     -3.96497065
C      -2.07032487     -1.84287320     -2.47649397
C      -2.35916344     -3.01185825     -3.15975826
C      -2.05616617     -4.22067279     -2.53013171
C      -1.47751221     -4.22988703     -1.24956585
C      -1.19606021     -3.03237148     -0.58429605
C      -1.50389556     -1.83595562     -1.21849690
H       6.88419658     -4.49484167      1.05088453
H       5.49779213     -4.27411013     -0.02630261
H       7.06181673     -3.53487507     -0.42612776
H       5.34352796     -2.82081866      2.00496713
H       6.89259278     -2.08128694      1.59556831
H       5.89990046     -1.27298475     -0.58002538
H       4.35373869     -1.97574495     -0.11932685
H       4.33779925     -0.50083470      1.95027313
H       5.84817053      0.20424388      1.44692654
H       6.11708249      1.43688557     -0.42617752
H       5.05121950      1.02126985     -1.73096472
H       5.30738899      3.45604601     -1.56184643
H       3.63733236      3.04219741     -1.21412959
H       4.35180262      4.73981821      0.33321471
H       4.07743204      3.25909149      1.24183777
H       6.14711257      4.45684022      1.95135751
H       6.53359473      2.84474014      1.34451432
H       6.82631779      4.26985887      0.32504997
H       2.99683908      0.62889520     -2.22510928
H       0.66152638      0.16871806     -2.64088278
H       2.31045482      0.32625811      2.01273217
H      -1.74942452      0.25447398      3.81666015
H      -5.03508762     -0.26934872      4.34953908
H      -5.05436101      1.47926759      3.99178425
H      -3.73367415      0.78020824      4.93109406
H      -6.23763784      0.12953434      2.32137875
H      -8.26401333     -0.22187505      1.07613341
H      -9.73310946      0.62140595     -0.71101369
H      -8.87347238      2.26199191     -2.36447303
H      -6.52398622      3.04514408     -2.21351023
H      -5.05840202      2.24156921     -0.41667698
H      -4.07523957     -0.06415327     -0.53904804
H      -2.80910623     -2.98522710     -4.14695767
H      -2.26879525     -5.16245374     -3.03291379
H      -1.24306292     -5.17870644     -0.76965808
H      -0.74742410     -3.04419181      0.40518623
