57
[Zn+2].c1ccc2c(c1)-c1nc3nc(nc4[n-]c(nc5[n-]c(nc-2n1)c1ccccc51)c1ccccc41)-c1ccccc1-3
Zn      0.00000000      0.00000000      0.00000000
C       0.30143869      4.57369673      3.62817611
C       1.61190827      4.19747574      3.98438527
C       2.29030053      3.20991004      3.25815524
C       1.64891434      2.62035873      2.18137041
C       0.33909453      2.99655339      1.82516967
C      -0.34205910      3.96507252      2.54309451
C      -0.06981216      2.16265555      0.69190389
N      -1.34833138      2.17273335      0.11743480
C      -1.93602128      1.06979553     -0.51730439
N      -1.73210363     -0.28116382     -0.28602254
C      -2.38698229     -1.06312868     -1.22625036
N      -2.18205518     -2.42369480     -1.51224440
C      -1.09527387     -3.21654412     -0.69000065
N      -0.04227706     -3.99678594     -1.17108584
C       0.89087522     -3.86811592     -0.15600195
N       2.44519643     -3.93999595     -0.21279300
C       3.07008506     -2.51409616     -0.18884006
N       3.64937373     -1.81525734      0.85695955
C       3.39706415     -0.49229504      0.48932452
N       3.21163201      0.76509441      1.42224227
C       2.07247320      1.57048737      1.25333354
N       1.03637595      1.40301054      0.34625486
C       3.32510304     -0.42116052     -0.89872916
C       3.27226185      0.66205160     -1.77584851
C       2.94004297      0.38259804     -3.10885293
C       2.63941642     -0.92690848     -3.53145568
C       2.67286445     -2.00701691     -2.63945077
C       3.05308257     -1.72511759     -1.32748753
C       0.24784574     -3.59340284      1.03997743
C       0.73241516     -3.47923632      2.34283403
C      -0.17565122     -3.04267066      3.31665978
C      -1.50089016     -2.70176222      2.98307798
C      -1.96293925     -2.77236494      1.66137742
C      -1.05999640     -3.22881114      0.70123629
C      -3.18238637     -0.14925206     -2.04784686
C      -4.04724829     -0.37893546     -3.10505626
C      -4.66380688      0.71964802     -3.71814274
C      -4.39989917      2.02953348     -3.27055647
C      -3.51665786      2.25205961     -2.20648718
C      -2.91873552      1.16005779     -1.60034071
H      -0.23412299      5.31386419      4.20317636
H       2.09893409      4.64639549      4.83690149
H       3.28177753      2.85445763      3.49954929
H      -1.35808202      4.17524716      2.23959744
H       3.30832248      1.65596231     -1.35623824
H       2.73711247      1.21835479     -3.76354494
H       2.21048152     -1.08961460     -4.51003512
H       2.27614490     -2.98735577     -2.85906460
H       1.79623614     -3.57331654      2.50448304
H       0.20792155     -2.80652881      4.29910034
H      -2.12644163     -2.20276801      3.70971340
H      -2.88810113     -2.33409412      1.31898678
H      -4.18223002     -1.40335471     -3.42125212
H      -5.32333538      0.54854764     -4.55555375
H      -4.85142011      2.87956246     -3.75936727
H      -3.23783464      3.22956536     -1.83862166
