68
C(=C/CSc1nnc(-c2ccccc2)c(-c2ccccc2)n1)\CSc1nnc(-c2ccccc2)c(-c2ccccc2)n1
C      -0.28336611      0.10030042      0.47107455
C       0.22130659     -0.06835666     -0.76506418
C      -0.28925140      0.63803513     -1.98690741
S      -1.01802452     -0.55443663     -3.14306204
C      -2.48619378     -0.95222645     -2.23575119
N      -2.76242560     -2.25475405     -2.03163057
N      -3.87660901     -2.59985952     -1.32154919
C      -4.69254185     -1.63086639     -0.84367026
C      -5.83403693     -2.12043693     -0.05455811
C      -6.65718459     -3.14520366     -0.55754080
C      -7.75205501     -3.61829550      0.17073158
C      -8.04195317     -3.07922867      1.42149047
C      -7.23158899     -2.07704394      1.94882693
C      -6.13395526     -1.60770100      1.22074133
C      -4.38192668     -0.29540647     -1.11587613
C      -5.20857828      0.86180488     -0.71855788
C      -4.62748964      1.95319096     -0.04658510
C      -5.39480021      3.05230220      0.34904214
C      -6.75853509      3.08438915      0.07165951
C      -7.35237365      2.02569376     -0.61022107
C      -6.58335877      0.92862653     -1.00796756
N      -3.26147936      0.05472515     -1.80426579
C       0.22591143     -0.60728827      1.69287758
S       0.92143588      0.59248446      2.86445105
C       2.40828638      0.98148416      1.98500014
N       2.62914933      2.26929243      1.65910714
N       3.76544382      2.60159978      0.97930413
C       4.65219918      1.63449917      0.64638938
C       5.85612913      2.11396392     -0.04811258
C       7.14933502      1.80236112      0.40927836
C       8.28332756      2.26547053     -0.26425958
C       8.14556074      3.05498147     -1.40323227
C       6.87540795      3.38835539     -1.86682646
C       5.74171954      2.92605269     -1.19218154
C       4.36650950      0.31149642      0.99076146
C       5.19874983     -0.85285447      0.63342212
C       5.59521652     -1.10536656     -0.69198885
C       6.37767967     -2.21902958     -1.01155089
C       6.76944628     -3.10700767     -0.01295607
C       6.37535968     -2.88608552      1.30391215
C       5.59408976     -1.77211301      1.62206720
N       3.24332179     -0.02341123      1.68146184
H      -1.12644943      0.77398656      0.62101420
H       1.06455362     -0.74393390     -0.91356108
H       0.55608010      1.12027382     -2.48784505
H      -1.00449848      1.43040216     -1.74206366
H      -6.44531194     -3.58427094     -1.53221945
H      -8.37448260     -4.40950686     -0.24017360
H      -8.89389320     -3.44596619      1.98790169
H      -7.44930133     -1.66035388      2.92981582
H      -5.51177975     -0.83303168      1.66691998
H      -3.56059130      1.94969692      0.17212028
H      -4.92611319      3.88359773      0.87003364
H      -7.35752284      3.93760012      0.37866421
H      -8.41485859      2.05322412     -0.83759243
H      -7.07404800      0.12316999     -1.55163310
H      -0.61714859     -1.10694034      2.18122411
H       0.95724983     -1.38580732      1.44984793
H       7.28972793      1.19948471      1.30529512
H       9.27508673      2.01323116      0.10383122
H       9.03009355      3.41640664     -1.92197753
H       6.76441285      4.01264808     -2.75074495
H       4.75685368      3.20634701     -1.56566425
H       5.29128973     -0.43893168     -1.49709655
H       6.67442009     -2.39372987     -2.04322434
H       7.37283548     -3.97619921     -0.26137258
H       6.66979287     -3.58390039      2.08372651
H       5.28574511     -1.62163435      2.65585083
