108
CCC(C)C1NC(=O)C(Cc2ccccc2)NC(=O)C2CCCN2C(=O)C(Cc2ccccc2)N(C)C(=O)C(CCCN)NC(=O)C2CCC=NN2C1=O
C       5.22049402     -3.32125677     -0.12660062
C       4.21607289     -2.54888858     -0.97059767
C       2.98095817     -2.06023922     -0.17001096
C       2.24203244     -3.22877463      0.48196599
C       2.03872295     -1.13275956     -1.00563341
N       2.71128870      0.17784421     -1.18929246
C       2.55368540      1.43748487     -0.69424003
O       3.13855167      2.32416318     -1.32792536
C       1.62987417      1.77754005      0.50921942
C       2.19924649      2.97808033      1.29813604
C       2.14881678      4.33996708      0.64362971
C       0.93562195      4.97838084      0.37585211
C       0.90340861      6.25571888     -0.18414172
C       2.09213268      6.91336566     -0.48660662
C       3.31238993      6.29072910     -0.23939800
C       3.33609127      5.01193240      0.32794693
N       1.54384909      0.61377540      1.40152282
C       0.61142981      0.12346644      2.24231806
O       0.88360657     -0.97587187      2.74070119
C      -0.75039697      0.77345379      2.57301069
C      -0.85534544      0.95238361      4.09582513
C      -0.45246822      2.40517044      4.29311432
C      -1.09787726      3.08867331      3.10241162
N      -1.11340883      2.08298036      2.04364652
C      -1.88930805      2.33007393      0.91772729
O      -2.34643643      3.45856666      0.72009118
C      -2.26909056      1.12792879      0.00099676
C      -2.62436324      1.61909264     -1.42400948
C      -1.43682699      2.08490903     -2.23435252
C      -1.06074577      3.43457934     -2.22814826
C       0.04833643      3.87058861     -2.95878426
C       0.79369596      2.96488324     -3.70480736
C       0.41841900      1.62511039     -3.73812772
C      -0.69354425      1.19072554     -3.01187947
N      -3.43502661      0.38996918      0.60349785
C      -4.61040868      1.19396511      0.95798653
C      -3.64273405     -0.99105384      0.52978772
O      -4.76613734     -1.47192240      0.70737541
C      -2.46768339     -1.93326356      0.14024939
C      -2.68798719     -3.37128071      0.65548044
C      -3.05204222     -3.56063331      2.13509724
C      -2.01255625     -3.00355590      3.09884361
N      -2.38990840     -3.25242091      4.48507406
N      -2.43637932     -1.91470468     -1.33358713
C      -1.52776551     -2.34496182     -2.25182581
O      -1.82618117     -2.15964416     -3.43160345
C      -0.24265231     -3.08365338     -1.81974336
C      -0.46745373     -4.59839776     -1.90098463
C      -0.63573247     -5.04641458     -3.34026428
C       0.34115198     -4.35384595     -4.23546834
N       1.05079356     -3.31794442     -3.91803955
N       0.91074248     -2.72434736     -2.67122301
C       1.81445952     -1.67722801     -2.45033193
O       2.54009957     -1.23126844     -3.35464518
H       6.13561191     -3.49810660     -0.70038322
H       4.82722900     -4.29974146      0.16894852
H       5.49400769     -2.77244544      0.77758462
H       4.73453092     -1.68277458     -1.39836947
H       3.90680359     -3.18895870     -1.80666119
H       3.37577672     -1.45805537      0.65853847
H       2.01470282     -4.01296713     -0.24049025
H       1.31146815     -2.90104293      0.95042791
H       2.85091162     -3.67577271      1.27483014
H       1.07480592     -0.95259184     -0.52741289
H       3.26603317      0.21320690     -2.04608519
H       0.64000256      1.99437884      0.10531920
H       3.23877622      2.75202309      1.58438860
H       1.67219452      3.07416123      2.25284635
H      -0.00441632      4.49171466      0.59937586
H      -0.05385214      6.73065050     -0.38603322
H       2.06685495      7.90354072     -0.93061908
H       4.24338834      6.79314266     -0.48686378
H       4.30131657      4.53771380      0.50151317
H       2.40168666      0.07638156      1.46144686
H      -1.50055181      0.05078607      2.25549372
H      -1.90158837      0.82307064      4.40796492
H      -0.23496068      0.26303174      4.68177380
H       0.63681788      2.50055254      4.25037796
H      -0.78683174      2.81678721      5.24828860
H      -2.13898027      3.35578560      3.33882566
H      -0.56689535      3.99106096      2.78357947
H      -1.40755781      0.45972517     -0.06469450
H      -3.36234609      2.43132093     -1.37944094
H      -3.12379738      0.81504493     -1.97868276
H      -1.62628612      4.16981293     -1.65829555
H       0.33982645      4.91695438     -2.94112358
H       1.66555904      3.29871483     -4.26189637
H       0.99334377      0.91525051     -4.32851696
H      -0.98253664      0.15112176     -3.09571599
H      -5.07377149      1.57483867      0.04399611
H      -5.35613736      0.60198097      1.49643673
H      -4.32606900      2.02304482      1.60867439
H      -1.51685118     -1.55526472      0.52579674
H      -3.46480543     -3.85927650      0.04966458
H      -1.76802961     -3.93599365      0.48500772
H      -4.03263180     -3.12431647      2.34549728
H      -3.16272658     -4.63654406      2.31304281
H      -1.03167073     -3.44659133      2.90733932
H      -1.92072955     -1.92707859      2.96527893
H      -3.34200093     -2.93156189      4.64967638
H      -2.41377794     -4.26120651      4.65935334
H      -3.27625449     -1.56748710     -1.79429354
H      -0.02372216     -2.80318513     -0.79119306
H       0.40092741     -5.11693086     -1.47170021
H      -1.34386543     -4.91653338     -1.33994519
H      -0.48499871     -6.12621310     -3.42670144
H      -1.63768308     -4.83011903     -3.71691581
H       0.44823884     -4.75621012     -5.25848940
