81
CCc1cc(N/N=C2/C(=O)C=Cc3ccccc32)c(S(=O)(=O)[O-])cc1Cl.CCc1cc(N/N=C2/C(=O)C=Cc3ccccc32)c(S(=O)(=O)[O-])cc1Cl.[Ba+2]
C       3.00523779      2.09164703      2.20435358
C       3.20917805      2.00448114      0.72976764
C       2.81647133      0.68153548      0.16569976
C       1.64225706      0.51331345     -0.53202039
C       1.27649730     -0.73062533     -1.06065047
N       0.03135750     -0.85459116     -1.79812063
N      -0.67072525      0.25582358     -2.01664994
C      -1.68071990      0.74297192     -1.48951921
C      -2.24971472      2.02506138     -1.95610585
O      -1.66707342      2.60029872     -2.91075043
C      -3.42866211      2.55241336     -1.30746374
C      -4.02357673      1.93236303     -0.30765040
C      -3.47993422      0.66762077      0.16838653
C      -4.10896946      0.00664732      1.22978125
C      -3.61890064     -1.18747693      1.70026558
C      -2.51630947     -1.78037762      1.16902325
C      -1.88375333     -1.13370219      0.11520120
C      -2.34294327      0.06481590     -0.38585164
C       2.06654345     -1.82961137     -0.90854835
S       1.64182170     -3.37134872     -1.56492595
O       1.60593506     -3.36128429     -3.06858512
O       2.70611287     -4.39150435     -1.18413758
O       0.20337298     -3.93784541     -0.93359587
C       3.26352630     -1.66329695     -0.19833985
C       3.61220651     -0.43436572      0.31714750
Cl      5.11564484     -0.24757510      1.20275046
C       4.41737540     -2.34221583     -0.38335546
C       4.44615508     -0.94638312     -0.95124146
C       3.38191593     -0.08062941     -0.31754707
C       2.23230299      0.19238778     -0.97878088
C       1.19314137      0.97887230     -0.46283884
N       0.03552491      1.23164177     -1.24562820
N      -1.08912194      1.81217997     -0.82986366
C      -2.21377976      1.30069097     -0.58278657
C      -3.33635154      2.15693423     -0.13211787
O      -3.12565112      3.38230119     -0.05538053
C      -4.61564431      1.56185998      0.19715598
C      -4.81542653      0.26176976      0.10645117
C      -3.71695518     -0.57047425     -0.33352638
C      -3.98444476     -1.93536039     -0.40280685
C      -3.00632039     -2.80769150     -0.80369503
C      -1.75608037     -2.34906656     -1.14082589
C      -1.47025698     -0.98404340     -1.07754313
C      -2.44347097     -0.12437601     -0.67915386
C       1.42760581      1.46986146      0.79931645
S       0.24237574      2.47385227      1.58997868
O       0.92583469      3.11598108      2.82352938
O      -0.90095652      1.73623608      2.17757067
O      -0.18664798      3.81096709      0.66706678
C       2.60488238      1.19524689      1.48899410
C       3.58238369      0.42770138      0.94725085
Cl      5.07776167      0.05918330      1.78303694
Ba      0.00000000      0.00000000      0.00000000
H       3.00170983      1.10536251      2.71555644
H       2.03586552      2.63006110      2.39808878
H       3.78787927      2.74578411      2.63240744
H       4.29813915      2.20851868      0.50941776
H       2.66282002      2.83325532      0.24233231
H       0.98988039      1.36339141     -0.67285845
H      -0.17154914     -1.83710259     -2.14139004
H      -3.85432174      3.50316844     -1.65066984
H      -4.90988267      2.33066955      0.17869967
H      -4.98174713      0.48141877      1.64547695
H      -4.12612056     -1.69412016      2.53704786
H      -2.10822827     -2.70619052      1.50916079
H      -1.03961742     -1.62585978     -0.26387797
H       3.89029257     -2.55374478     -0.08214789
H       3.50513025     -2.46960844      0.26755882
H       4.41590766     -3.05038112     -1.24948795
H       5.30813078     -2.60054561      0.21796521
H       4.32178724     -0.90410775     -2.04515961
H       5.41580654     -0.51697451     -0.70050347
H       2.10439883     -0.22843804     -1.97529333
H       0.17816392      0.96479706     -2.29482580
H      -5.39817849      2.26425118      0.52319341
H      -5.78124234     -0.13006726      0.36047792
H      -4.95750451     -2.32079743     -0.14222496
H      -3.23490970     -3.85641621     -0.84517965
H      -1.01281707     -3.04473647     -1.44829462
H      -0.50876053     -0.74220820     -1.35263436
H       2.73793611      1.60780575      2.48716500
