80
Cc1cccc(C)c1OCC(=O)NC(Cc1ccccc1)C(O)C(=O)N1CSC(C)(C)C1C(=O)NC(C)(C)C
C      -7.78206360     -0.42092223      0.21710319
C      -6.92048922      0.28805584     -0.78977117
C      -7.54969607      1.15539640     -1.69894650
C      -6.81975422      1.79544733     -2.69769805
C      -5.45289251      1.56080973     -2.81575821
C      -4.79304662      0.70462417     -1.92059060
C      -3.31572501      0.48681732     -2.09292609
C      -5.52172278      0.11976894     -0.86647000
O      -4.81116092     -0.65716625      0.01886544
C      -4.94333767     -0.22692009      1.37866263
C      -3.64735161     -0.42209222      2.16417063
O      -3.63392682     -0.68308395      3.36455107
N      -2.50465741     -0.21537388      1.42907483
C      -1.15082051     -0.44105890      1.95980258
C      -0.81063426     -1.95570424      1.97649886
C      -0.54155895     -2.60921201      0.64209134
C       0.76861798     -2.94739602      0.27374144
C       1.02391331     -3.53576948     -0.96619437
C      -0.02213890     -3.78456327     -1.85054520
C      -1.32921770     -3.46699091     -1.48716142
C      -1.58992455     -2.89131941     -0.24320419
C      -0.18038271      0.51668244      1.21900850
O      -0.27208973      0.38125295     -0.20463396
C       1.27815497      0.48243482      1.72470291
O       1.66162344     -0.34213635      2.55276883
N       2.14793601      1.43291974      1.20380852
C       1.75168722      2.50930016      0.31259044
S       3.20287672      3.53403232      0.02501080
C       4.07232275      2.92975578      1.51658205
C       5.58227297      3.08210079      1.32655517
C       3.62434758      3.79109056      2.71041477
C       3.55245281      1.48110006      1.68069024
C       4.43114427      0.42763669      0.95617866
O       5.49235236      0.04175830      1.44149457
N       4.00142229      0.06605432     -0.30471282
C       4.72882192     -0.79627676     -1.24368518
C       6.05249282     -0.14374366     -1.66866964
C       4.99551556     -2.18173187     -0.63566459
C       3.85154822     -0.97669084     -2.49567719
H      -8.82291683     -0.48204905     -0.12508794
H      -7.77355919      0.11808109      1.17035795
H      -7.44184602     -1.45142507      0.36432133
H      -8.62424591      1.32493349     -1.64495055
H      -7.31941240      2.45982496     -3.39773566
H      -4.89897509      2.04822925     -3.61610119
H      -3.02817979     -0.52862225     -1.80414815
H      -2.75119329      1.20766149     -1.49215483
H      -3.02343394      0.60555591     -3.14362088
H      -5.70086087     -0.84792879      1.86851014
H      -5.21234487      0.83444902      1.46331015
H      -2.60555729     -0.18289257      0.42042427
H      -1.17307680     -0.13117225      3.01479529
H       0.04634086     -2.13155583      2.63752002
H      -1.63203025     -2.50853893      2.45490519
H       1.60045821     -2.76190337      0.95243160
H       2.04096395     -3.80444084     -1.24047744
H       0.17608789     -4.24397400     -2.81602514
H      -2.15058089     -3.67853962     -2.16642722
H      -2.62218081     -2.67910888      0.03330226
H      -0.54588601      1.52972226      1.43498238
H       0.01332857     -0.52462155     -0.43654233
H       0.96443704      3.10337072      0.78374083
H       1.39018715      2.10969488     -0.63504306
H       5.86882267      4.13761721      1.24301602
H       6.12328247      2.66679520      2.18557971
H       5.94718520      2.57511117      0.42639729
H       2.54223903      3.74027842      2.88167805
H       3.89194135      4.84512682      2.57096645
H       4.11268483      3.45127608      3.63280378
H       3.56768983      1.18790922      2.73886166
H       3.16691370      0.52612972     -0.63930278
H       6.73574435     -0.01967328     -0.82101614
H       6.56788928     -0.75043284     -2.42219210
H       5.88347222      0.85113976     -2.09862107
H       4.06687638     -2.63674097     -0.27530254
H       5.68894282     -2.13219066      0.21206877
H       5.43861428     -2.86064737     -1.37437180
H       3.65334942     -0.01343125     -2.98172221
H       4.33193128     -1.62996873     -3.23232763
H       2.87998604     -1.41193483     -2.23886076
