77
C=C(C)[C@@H]1C2OC(=O)C1[C@]1(O)CC3O[C@]34C(=O)O[C@H]2[C@@]41C.CC(C)(O)[C@@H]1C2OC(=O)C1[C@]1(O)C[C@H]3O[C@]34C(=O)O[C@H]2[C@@]41C
C       3.53795922      1.23114173     -0.26182064
C       2.69269770      0.20150781     -0.43956331
C       3.23181333     -1.15113009     -0.83971060
C       1.17235481      0.28034387     -0.30490454
C       0.53884580      1.66573872     -0.16336957
O       0.78033439      2.02366291      1.20615254
C       0.87198195      0.87030155      1.93068607
O       1.04700542      0.81566335      3.13565040
C       0.68094943     -0.31048114      1.01258969
C      -0.81749033     -0.67186242      0.97736903
O      -1.31954124     -0.82640466      2.30659991
C      -1.03393848     -2.05001403      0.26828609
C      -1.56984301     -1.74353868     -1.08860375
O      -2.95494603     -1.37321067     -1.15265767
C      -1.98734886     -0.32641109     -1.12692058
C      -1.79314421      0.55033446     -2.26757839
O      -2.00052221      0.27320992     -3.43463521
O      -1.26496660      1.71646869     -1.79922105
C      -0.98727247      1.62949368     -0.37148164
C      -1.70505026      0.35374319      0.17256279
C      -3.01277831      0.74250955      0.87614971
C       2.94466749     -1.64722265     -0.04130208
C       2.22356387     -0.37633944      0.42547186
C       3.25503667      0.63120358      0.94986331
O       1.37750165     -0.73871948      1.51097957
C       1.40268482      0.23260679     -0.72613562
C       0.64252861      1.52884283     -0.48150514
O      -0.01805929      1.72027560     -1.75248392
C      -0.22078390      0.49329701     -2.32200127
O      -0.74306468      0.30847952     -3.40515497
C       0.24650157     -0.56209306     -1.35239046
C      -0.91225325     -0.93146898     -0.39252171
O      -0.52326531     -2.10955297      0.32085537
C      -2.22974435     -1.29140827     -1.15878629
C      -3.04329382     -0.02758459     -1.15750058
O      -3.79905161      0.21342279      0.03696390
C      -2.52460699      0.85089155     -0.08950890
C      -2.44755447      2.30280654     -0.04264624
O      -3.28886521      3.08748922     -0.44155351
O      -1.26005467      2.62808272      0.56313747
C      -0.40731225      1.44715193      0.64574264
C      -1.35085933      0.21848261      0.58341162
C      -1.75573795     -0.24274526      1.99505802
H       3.21240429      2.22718071      0.02256056
H       4.61182720      1.10976336     -0.38572158
H       2.98395414     -1.90430532     -0.08568261
H       2.80045490     -1.46227544     -1.79685293
H       4.32104916     -1.14529411     -0.95479927
H       0.77077229     -0.23302597     -1.18432319
H       0.99995682      2.40696893     -0.82475542
H       1.29573036     -1.13793827      1.38235389
H      -0.67098604     -1.29764001      2.86268585
H      -1.74467320     -2.67776060      0.81894662
H      -0.09789320     -2.61365128      0.19074629
H      -1.11290931     -2.23575021     -1.93161979
H      -1.41841234      2.52889366      0.08600079
H      -3.64887640      1.35251767      0.22404677
H      -3.59819948     -0.14013624      1.15690796
H      -2.81129924      1.32138647      1.78392677
H       3.61555904     -1.44462880     -0.88250283
H       3.53632482     -2.08164000      0.77299625
H       2.23207819     -2.42189143     -0.34328530
H       3.91849232      0.98157162      0.15253470
H       2.76614381      1.49833512      1.40674779
H       3.87283138      0.18433916      1.73763641
H       1.94916371     -1.03544549      2.24834470
H       2.12466406      0.43501162     -1.53629521
H       1.30647256      2.38641366     -0.33329357
H       0.62978129     -1.43080085     -1.89728261
H       0.16187580     -1.84442572      0.96963525
H      -2.03167219     -1.65030382     -2.17370069
H      -2.77810977     -2.08937346     -0.64271297
H      -3.37642242      0.36231809     -2.10557683
H       0.10613344      1.49230294      1.61253867
H      -2.22241884      0.57354861      2.55917783
H      -2.48224699     -1.06214035      1.95552957
H      -0.89662781     -0.58908889      2.57550267
