97
CC(=O)C(N=Nc1cc(C(=O)Nc2cccc(Cl)c2C)ccc1Cl)C(=O)Nc1cc(Cl)c(NC(=O)C(N=Nc2cc(C(=O)Nc3cccc(Cl)c3C)ccc2Cl)C(C)=O)cc1C
C      -3.80974171      3.82019658     -0.38032156
C      -2.63870686      3.20897073      0.35486109
O      -1.48518814      3.51960910      0.03975331
C      -2.95677929      2.26407427      1.50285570
N      -3.98492385      1.31102106      1.02536737
N      -4.91707519      1.19702027      1.84840707
C      -5.99584135      0.49194196      1.28685305
C      -7.02214496      1.21936851      0.66985636
C      -8.14376768      0.57218616      0.13418452
C      -9.16588157      1.41109904     -0.55764695
O      -8.76903063      2.40526773     -1.15186084
N     -10.47186764      0.98615437     -0.41308518
C     -11.63384293      1.54129354     -1.00584058
C     -11.55881620      2.56921546     -1.95502750
C     -12.70950343      3.08430942     -2.55342329
C     -13.95525386      2.57917311     -2.21193592
C     -14.05623502      1.55392116     -1.27093525
Cl    -15.65215881      0.98051941     -0.92169403
C     -12.90682016      1.01618200     -0.65267075
C     -13.01887815     -0.08464639      0.37430990
C      -8.24046160     -0.82422824      0.20390286
C      -7.22662083     -1.56108086      0.82523953
C      -6.11689540     -0.90527960      1.37314785
Cl     -4.89560079     -1.85683969      2.13816319
C      -1.73611643      1.50735899      2.00497587
O      -1.10849951      1.92588371      2.97654907
N      -1.42368874      0.36459460      1.28467014
C      -0.24551968     -0.41435844      1.38293461
C       0.89752983      0.05439695      2.03805330
C       2.06849606     -0.70873067      2.07680384
Cl      3.45501443     -0.04864831      2.88153022
C       2.13403046     -1.97070480      1.46796924
N       3.36467547     -2.67126664      1.50507123
C       3.64814772     -3.94169962      1.02818528
O       2.82309062     -4.73954325      0.59960216
C       5.13948588     -4.24955585      1.06837696
N       5.74920541     -3.49360490     -0.04541644
N       6.99052611     -3.37879576      0.06234822
C       7.49406581     -2.65087450     -1.03474127
C       7.78577427     -1.29052265     -0.85419934
C       8.31192455     -0.52979305     -1.90781241
C       8.65904756      0.90724562     -1.73142828
O       8.43393807      1.67079699     -2.66139833
N       9.26351178      1.20384307     -0.52660898
C       9.67938032      2.47522441     -0.05106088
C       9.34686260      3.65411007     -0.73231219
C       9.74910656      4.89894791     -0.24970463
C      10.48292604      4.98208668      0.92770437
C      10.82320691      3.81983864      1.62182780
Cl     11.72251431      4.02833981      3.08519113
C      10.43753422      2.54878650      1.14662810
C      10.80227047      1.28880422      1.89277925
C       8.53367722     -1.11916711     -3.15767778
C       8.27060498     -2.47721361     -3.34120704
C       7.76112471     -3.24169830     -2.28473378
Cl      7.50532717     -4.93008489     -2.55796166
C       5.47726678     -5.71635104      0.91140014
C       4.98067390     -6.46187718     -0.30339532
O       6.15728171     -6.29712162      1.76191501
C       0.99487470     -2.44292805      0.81645997
C      -0.19248899     -1.67742231      0.75680164
C      -1.36555003     -2.25480119      0.01520559
H      -4.25242602      3.08296300     -1.05019895
H      -3.46462614      4.67155655     -0.97853204
H      -4.55223243      4.17675017      0.34088767
H      -3.33397521      2.87675521      2.33319816
H      -6.94649741      2.30351905      0.60860923
H     -10.62246188      0.23657635      0.24674974
H     -10.61128400      2.99150115     -2.27002690
H     -12.62759379      3.87826267     -3.29035361
H     -14.84887242      2.97998048     -2.68707309
H     -14.04094020     -0.40627940      0.56743874
H     -12.46594590     -0.97258721      0.04568103
H     -12.61616078      0.26669887      1.33342432
H      -9.07823064     -1.34923219     -0.24812535
H      -7.30598966     -2.64751365      0.87854251
H      -2.16520722      0.00715590      0.69124887
H       0.91477237      1.03656642      2.50302604
H       4.12522212     -2.14854835      1.92596915
H       5.54161635     -3.90557974      2.03052171
H       7.57262205     -0.82989275      0.10747592
H       9.51281397      0.41085359      0.04995642
H       8.76376831      3.64234964     -1.65021187
H       9.47750356      5.80068565     -0.78792472
H      10.79663591      5.95485985      1.29528046
H      11.28858671      0.57667866      1.21778228
H      11.50776147      1.44620412      2.71003525
H       9.90198691      0.83037356      2.31637063
H       8.92653969     -0.52643896     -3.98330601
H       8.45956565     -2.93451059     -4.31005737
H       5.77914002     -7.11186929     -0.67166095
H       4.70796897     -5.76830045     -1.10785290
H       4.10655160     -7.06249783     -0.03235616
H       1.01036790     -3.41159272      0.32088163
H      -2.22231312     -2.36719015      0.69066154
H      -1.13793960     -3.24370731     -0.40090289
H      -1.63992434     -1.60749381     -0.82320517
