120
CCCCCCC(O)CCCCCCCCCCC(=O)NCCNC(=O)CCCCCCCCCCC(O)CCCCCC
C      19.19748565     -0.46704365     -0.35796757
C      17.91455370      0.26511440     -0.72567409
C      16.77976753     -0.71170194     -1.02903745
C      15.49213420      0.02534521     -1.40420090
C      14.36375722     -0.95772424     -1.72408909
C      13.07627525     -0.27190545     -2.19541378
C      12.38595125      0.58534335     -1.12619662
O      12.09030744     -0.24227465     -0.00374144
C      11.09093249      1.20005861     -1.67560192
C      10.36682092      2.07851585     -0.64740676
C       9.13240183      2.74563588     -1.26184613
C       8.38818263      3.66706235     -0.28858294
C       7.83360675      2.99009123      0.96878611
C       6.91955726      1.78605837      0.72691453
C       5.63460651      2.13694576     -0.02458977
C       4.76943395      0.89279294     -0.23971504
C       3.43662717      1.24620883     -0.90574354
C       2.60104352      0.00564783     -1.22440585
C       2.05161454     -0.68751214      0.01132257
O       2.02771252     -0.17518331      1.12372542
N       1.54731618     -1.94443750     -0.26129340
C       1.15278979     -2.84200843      0.82158676
C       0.04917568     -3.80652161      0.37891866
N      -1.19056104     -3.10645629      0.08869349
C      -2.06548057     -2.79224224      1.11373991
O      -1.94435797     -3.21845871      2.25578606
C      -3.18730993     -1.87513047      0.65664153
C      -4.14526720     -1.46911598      1.77662115
C      -5.11252959     -2.59032962      2.16927436
C      -6.05659587     -2.20100429      3.31592667
C      -6.97521326     -1.00335832      3.04598539
C      -7.91688118     -1.21737556      1.86104312
C      -8.82972967     -0.00757193      1.65069104
C      -9.74645701     -0.16056736      0.43425701
C     -10.90884850     -1.13037868      0.67516578
C     -11.75952378     -1.37687669     -0.57594433
C     -12.99256978     -0.47269667     -0.73767138
O     -13.70974867     -0.93755887     -1.88431098
C     -12.66620042      1.01237549     -0.90986950
C     -13.82799246      1.91261583     -1.35403857
C     -14.95317091      2.07617347     -0.32717539
C     -16.10242170      1.08382117     -0.51418938
C     -17.24031278      1.36206785      0.47015424
C     -18.38920479      0.38071666      0.28329797
H      19.99448924      0.25294165     -0.14644286
H      19.53070245     -1.10946303     -1.18121886
H      19.05553991     -1.09125813      0.53023141
H      17.62864339      0.92469478      0.10058084
H      18.10176910      0.90003214     -1.60147357
H      16.59522134     -1.34449327     -0.15233946
H      17.07484692     -1.37682173     -1.85155167
H      15.67451754      0.66689930     -2.27535364
H      15.19858225      0.67963289     -0.57622030
H      14.15823567     -1.58516576     -0.84777925
H      14.69923407     -1.63603730     -2.51949530
H      13.29264179      0.34118222     -3.07868842
H      12.38615952     -1.06590960     -2.51429545
H      13.05633394      1.38491437     -0.79746143
H      11.91787736      0.34942285      0.74974096
H      10.40636950      0.39894967     -1.98737594
H      11.32393301      1.79909838     -2.56539220
H      10.06683922      1.46527039      0.20867806
H      11.05117630      2.85008125     -0.27550881
H       8.44900569      1.98550971     -1.65554006
H       9.44703890      3.34782854     -2.12353090
H       9.06429409      4.47606312      0.02376979
H       7.56858478      4.15383384     -0.82913023
H       7.28683520      3.73873890      1.55590365
H       8.66779881      2.66947353      1.60472858
H       6.65256031      1.36162244      1.70287763
H       7.46543597      0.99944808      0.19476840
H       5.07251382      2.88346925      0.54749111
H       5.86749025      2.58325651     -0.99845873
H       4.59109922      0.40096616      0.72321645
H       5.31613794      0.17714824     -0.86786148
H       3.63419960      1.77965083     -1.84376590
H       2.86680529      1.92785022     -0.26250175
H       3.19559306     -0.70487189     -1.80886653
H       1.74111650      0.30276298     -1.83563594
H       1.81512310     -2.36897845     -1.14176644
H       0.83607125     -2.25840587      1.69158155
H       2.04852307     -3.40549070      1.10341083
H       0.34060152     -4.32682789     -0.53990826
H      -0.12835077     -4.55620272      1.15864459
H      -1.19653649     -2.50289849     -0.72272310
H      -3.73530642     -2.36185249     -0.16110817
H      -2.72094294     -0.96558469      0.25421642
H      -4.71891252     -0.60531622      1.42273680
H      -3.57907423     -1.14252536      2.65687096
H      -4.54733363     -3.47220748      2.48978459
H      -5.69382772     -2.90540408      1.29489012
H      -6.67654307     -3.07049857      3.56485828
H      -5.45733643     -1.98081353      4.20823222
H      -6.37907607     -0.09743749      2.89004018
H      -7.57251692     -0.82299203      3.94777847
H      -7.33893981     -1.38290431      0.94586907
H      -8.51329665     -2.11959086      2.03038012
H      -8.20281795      0.88048534      1.49948414
H      -9.42862294      0.17789347      2.55047739
H      -9.15710986     -0.48786994     -0.43018298
H     -10.14059159      0.82887096      0.18562273
H     -10.49945312     -2.09800222      0.98565900
H     -11.53514520     -0.77931601      1.50362522
H     -12.12586885     -2.41236996     -0.53472574
H     -11.13670552     -1.33771342     -1.48028926
H     -13.64436682     -0.60809389      0.13138456
H     -13.14213484     -0.80250606     -2.66190942
H     -12.25352547      1.40996001      0.02501587
H     -11.88173029      1.11090622     -1.67302442
H     -14.22789609      1.58271149     -2.32119372
H     -13.39664210      2.90937335     -1.53094488
H     -14.55637665      2.01795435      0.69321307
H     -15.36490217      3.08811083     -0.44344812
H     -15.74967873      0.05756564     -0.37387206
H     -16.48503730      1.15317198     -1.53956349
H     -16.86802274      1.28817077      1.49848266
H     -17.61801500      2.38269221      0.33110710
H     -18.05624690     -0.64842299      0.45462066
H     -18.79977712      0.44843334     -0.73175412
H     -19.19295688      0.60506387      0.99250343
