63
Cc1cc(C2(c3cc(C)c(O)c(Br)c3C(C)C)OS(=O)(=O)c3ccccc32)c(C(C)C)c(Br)c1O
C      -1.38958335     -3.69253991      2.06659136
C      -1.70428194     -2.56109675      1.13117231
C      -0.83865521     -1.47355465      1.01817637
C      -1.06135028     -0.39258312      0.11838749
C       0.06489593      0.70150532      0.05741748
C       1.50188049      0.11500736      0.34600090
C       2.17276382      0.53466898      1.52615819
C       3.44946791      0.08818925      1.87063128
C       4.11539898      0.57207777      3.12707801
C       4.09124615     -0.79350018      1.01209255
O       5.35256844     -1.20171803      1.37232605
C       3.47839834     -1.24688045     -0.17191286
Br      4.54397173     -2.43596273     -1.22815819
C       2.16779181     -0.82342055     -0.53104955
C       1.46869331     -1.33191198     -1.80451069
C       2.08577920     -0.78686710     -3.09685278
C       1.24613116     -2.84899952     -1.85555216
O       0.21725929      1.26074520     -1.26928065
S       0.54863374      2.85839616     -1.25331830
O       1.98030631      3.05313461     -1.25251791
O      -0.34128263      3.52665244     -2.17705611
C      -0.03903459      3.13572343      0.35664000
C      -0.30290888      4.35777942      0.94570758
C      -0.87374408      4.33726952      2.21581704
C      -1.17699208      3.11579938      2.84055831
C      -0.91085280      1.89473885      2.20704717
C      -0.32771747      1.90235976      0.94177449
C      -2.28772798     -0.37296566     -0.63281083
C      -2.68098992      0.86130516     -1.45226546
C      -4.05581624      1.46215859     -1.12523097
C      -2.47010460      0.67951616     -2.95662816
C      -3.12245453     -1.52420128     -0.55867210
Br     -4.67796823     -1.77996726     -1.64524296
C      -2.82335933     -2.58930645      0.31267370
O      -3.62644616     -3.69999994      0.39558129
H      -1.09086928     -4.57883329      1.49790130
H      -0.57143495     -3.43403164      2.74719005
H      -2.26011874     -3.93413654      2.68517593
H       0.05051373     -1.48583533      1.64879752
H       1.70781692      1.23680682      2.21417357
H       5.01801831      1.14124942      2.88203869
H       4.38227279     -0.27543248      3.76693313
H       3.45584515      1.22641460      3.70692498
H       5.68365198     -1.77748762      0.65940758
H       0.45046565     -0.94973449     -1.82090159
H       2.20445520      0.30094186     -3.04823459
H       1.43512966     -1.01198126     -3.94950600
H       3.06358386     -1.21677808     -3.32140955
H       0.45718748     -3.08416469     -2.57999642
H       0.92836965     -3.23947381     -0.88324232
H       2.12736972     -3.40587966     -2.17745201
H      -0.08748935      5.29159245      0.43625275
H      -1.09933338      5.27246888      2.72464036
H      -1.63146584      3.12029846      3.83007377
H      -1.16086780      0.96471957      2.71159155
H      -2.02694960      1.67365133     -1.15159792
H      -4.08905992      2.50857854     -1.45226132
H      -4.88121046      0.96442976     -1.63625306
H      -4.25032948      1.44771884     -0.04740486
H      -3.17965180     -0.02228929     -3.40080057
H      -2.59299947      1.63632176     -3.47615430
H      -1.46289510      0.30942663     -3.17517626
H      -4.35392126     -3.58011254     -0.24148231
