60
CC1=NN(c2cc(Cl)c(S(=O)(=O)[O-])cc2Cl)C(=O)C1N=Nc1cccc(S(=O)(=O)NCCc2ccccc2)c1.[Na+]
C      -2.63748645     -3.02686175     -1.44546840
C      -3.33245809     -2.03216553     -0.58036755
N      -4.60257820     -1.78453772     -0.65926822
N      -4.87134796     -0.82753445      0.30689599
C      -6.20669847     -0.35848963      0.42056674
C      -7.01389506     -0.38983394     -0.73589373
C      -8.33609075      0.08065907     -0.73838788
Cl     -9.17557569     -0.01295822     -2.24510854
C      -8.87288948      0.58020267      0.44345418
S     -10.56751352      1.18795944      0.52109910
O     -10.56121844      2.26966729     -0.45761743
O     -11.34020604     -0.00288723      0.18458355
O     -10.70364813      1.62714611      1.90802735
C      -8.10353232      0.58762402      1.61670252
C      -6.78744772      0.10981032      1.61245831
Cl     -6.04410549     -0.05485495      3.16704336
C      -3.72232852     -0.35052814      0.96760983
O      -3.57325752      0.58671387      1.73552100
C      -2.61115426     -1.23438495      0.45966917
N      -1.59580309     -0.40621476     -0.19508307
N      -0.44178271     -0.86023569     -0.03701422
C       0.49269941     -0.01966577     -0.66389670
C       0.79117882     -0.17624302     -2.02484885
C       1.75022298      0.62920160     -2.64429184
C       2.43374468      1.58994199     -1.90160471
C       2.15025125      1.73531034     -0.54057716
S       3.02744967      2.93650515      0.42537114
O       2.07236852      3.60989596      1.27414104
O       3.92411999      3.66030820     -0.44893180
N       3.96492863      1.97885271      1.43013438
C       4.92326720      1.03125432      0.85921483
C       6.17912445      0.98685974      1.73122611
C       7.18954249      0.00169750      1.19919639
C       7.23850102     -1.30750721      1.69543687
C       8.15699898     -2.22322694      1.18019916
C       9.02940102     -1.84174286      0.16204044
C       8.98658092     -0.54240458     -0.33936107
C       8.07069824      0.37587573      0.17512043
C       1.17811639      0.94398657      0.07962899
Na      0.00000000      0.00000000      0.00000000
H      -3.36729248     -3.63300055     -1.98895996
H      -2.01881872     -3.68029031     -0.82513373
H      -2.00220573     -2.50530290     -2.16513242
H      -6.59919081     -0.76450369     -1.66993783
H      -8.55157153      0.93848463      2.54482486
H      -2.23404331     -1.87805202      1.26101528
H       0.26346950     -0.92763620     -2.60735366
H       1.95999126      0.50756151     -3.70459959
H       3.17816193      2.21753590     -2.38739419
H       3.55564832      1.79759100      2.34501825
H       4.45477601      0.04169282      0.81605288
H       5.19459539      1.31671039     -0.16258078
H       6.63605043      1.98325818      1.78919951
H       5.91440307      0.72433294      2.76348831
H       6.56415145     -1.62229494      2.48794004
H       8.19062987     -3.23584720      1.57222747
H       9.74422195     -2.55570119     -0.23863641
H       9.66645870     -0.24347000     -1.13297993
H       8.04773884      1.38728522     -0.22758978
H       0.94464909      1.07445120      1.13382908
