87
CSCC(NC(=O)COc1cccc2cnccc12)C(=O)NC(Cc1ccccc1)C(O)C(=O)N1CSCC1C(=O)NC(C)(C)C
C       2.97721538      0.25883350     -5.83947206
S       4.00183352     -0.84034175     -4.82994065
C       2.84366759     -1.17312704     -3.44775515
C       2.34517197      0.06874416     -2.69795732
N       3.43351148      0.90025904     -2.19814698
C       3.21390083      2.21964617     -1.87000229
O       2.16119058      2.80279593     -2.12049464
C       4.39280755      2.91872524     -1.18683672
O       5.47917690      2.05690606     -0.85655889
C       5.55857968      1.62681198      0.44756643
C       4.43202225      1.36552795      1.23526734
C       4.58184373      0.88985555      2.53799166
C       5.85440614      0.66179280      3.05836286
C       6.99584730      0.89997665      2.27511224
C       8.28936556      0.67074641      2.75330408
N       9.42210731      0.87696469      2.04239861
C       9.26459389      1.33644934      0.78580097
C       8.03183956      1.59769052      0.20937598
C       6.85861410      1.38125619      0.95581743
C       1.48703429     -0.40015796     -1.50684247
O       1.91685297     -0.47353016     -0.35545967
N       0.19992578     -0.76821200     -1.83750446
C      -0.76417881     -1.22960222     -0.83044142
C      -0.66459535     -2.76262710     -0.67761358
C      -1.33416602     -3.25392575      0.58369286
C      -0.68425646     -3.11644757      1.81975832
C      -1.31651373     -3.51612566      2.99624227
C      -2.60060753     -4.05566345      2.94830235
C      -3.25134637     -4.20493652      1.72399657
C      -2.61957387     -3.81095878      0.54479858
C      -2.19213959     -0.78146872     -1.21313606
O      -2.44826557     -1.17399882     -2.57514060
C      -2.34698611      0.74522716     -1.07870060
O      -2.47672843      1.42427121     -2.10291479
N      -2.39553616      1.32116404      0.17023068
C      -2.38787804      2.76705823      0.27028350
S      -2.23928021      3.18819783      2.02059563
C      -1.97244102      1.47256730      2.54879648
C      -2.62298774      0.63334799      1.45566964
C      -4.11700423      0.38228440      1.78600034
O      -4.47300793     -0.00999359      2.89387040
N      -4.97408289      0.52035773      0.70998681
C      -6.42912820      0.31204464      0.76355449
C      -7.09316086      1.33276561      1.69864728
C      -6.98195853      0.51045334     -0.66039892
C      -6.76935342     -1.11908293      1.21073117
H       1.99394653     -0.18729704     -6.01446789
H       2.86527707      1.23226472     -5.35449584
H       3.46590028      0.41260282     -6.80689931
H       3.37123728     -1.83747611     -2.75285972
H       1.99936263     -1.74854000     -3.84406140
H       1.70531831      0.68027283     -3.34571190
H       4.20460509      0.44262688     -1.71798499
H       4.77996391      3.64589835     -1.91069153
H       4.03353039      3.48817846     -0.32147572
H       3.42249535      1.49689356      0.85500702
H       3.70175868      0.68601953      3.14352476
H       5.95252248      0.28659572      4.07528583
H       8.45806064      0.29689671      3.76054109
H      10.18480129      1.49620426      0.23132498
H       7.98759366      1.96531947     -0.81093033
H      -0.12036123     -0.74662780     -2.80099436
H      -0.47403906     -0.76311725      0.11709975
H      -1.08516181     -3.26875055     -1.55429175
H       0.38773153     -3.07221363     -0.64696048
H       0.32088176     -2.69758723      1.87080106
H      -0.80753100     -3.40892051      3.95102604
H      -3.09598310     -4.36253132      3.86588112
H      -4.25264362     -4.62833956      1.69065913
H      -3.14159340     -3.93583304     -0.40224211
H      -2.96188194     -1.25165439     -0.59691256
H      -2.78928046     -0.37155405     -3.02419811
H      -3.32425661      3.16190691     -0.13480921
H      -1.55087787      3.17520212     -0.30497176
H      -2.37926378      1.30560823      3.55008302
H      -0.89201210      1.29654142      2.57409162
H      -2.17435208     -0.36215150      1.43106847
H      -4.63663201      1.11149314     -0.04076560
H      -6.84785935      2.35871260      1.39915030
H      -8.18456584      1.23097470      1.68481058
H      -6.76313633      1.20944437      2.73548835
H      -6.52021731     -0.19352730     -1.36314550
H      -6.77204389      1.52204671     -1.02834563
H      -8.06635875      0.35915647     -0.69505584
H      -6.48233650     -1.30628454      2.24990712
H      -6.25330207     -1.85998162      0.58831993
H      -7.84562805     -1.31099418      1.13736367
