40
Cc1c(Cl)cc(N=Nc2c([O-])c(C(=O)[O-])cc3ccccc23)cc1S(=O)(=O)O.[Sr+2]
C      -5.76311757      0.65269552      0.16360038
C      -4.27803153      0.63751121      0.22464670
C      -3.50318583      1.73118359     -0.04624969
Cl     -4.28199734      3.23738199     -0.48995705
C      -2.12480172      1.69892388      0.01535046
C      -1.46495266      0.53734550      0.35980206
N      -0.07548536      0.39494993      0.45205555
N       0.76363695      0.98825033     -0.28530544
C       2.15319215      0.84516915     -0.19224713
C       2.92626893      1.95410250      0.08168131
O       2.29667398      3.18883112      0.25822338
C       4.31674636      1.82925292      0.17819948
C       5.09397727      3.03418715      0.47042556
O       6.34524508      2.95511677      0.56350210
O       4.49295067      4.25729967      0.64723842
C       4.93872944      0.62339118      0.00640173
C       4.17311172     -0.48505675     -0.26679019
C       4.79262283     -1.69878611     -0.44028061
C       4.04608883     -2.82277861     -0.71474590
C       2.66307872     -2.70306667     -0.81157504
C       2.06096470     -1.46820530     -0.63263741
C       2.80323511     -0.35897394     -0.36130167
C      -2.24865102     -0.56484286      0.63270196
C      -3.60832679     -0.53063196      0.57127841
S      -4.57877820     -1.94357367      0.92246938
O      -3.64289181     -3.10500167      1.17527538
O      -5.40378995     -1.77703416      2.15496635
O      -5.52008600     -2.38075926     -0.40764340
Sr      0.00000000      0.00000000      0.00000000
H      -6.16391482     -0.29595532      0.51429248
H      -6.13281812      0.88368097     -0.85760070
H      -6.09585031      1.49178809      0.83061931
H      -1.52144313      2.59223305     -0.20706020
H       6.00687802      0.54676078      0.08413924
H       5.87764508     -1.75588387     -0.35742667
H       4.52456412     -3.77476757     -0.85146634
H       2.04979917     -3.56208767     -1.02501309
H       0.98341042     -1.40486632     -0.71368418
H      -1.79390078     -1.52317418      0.91346157
H      -5.10679660     -1.92460941     -1.19508558
