83
NCCC(O)C(=O)NC1CC(N)C(OC2OC(CN)C(O)C(O)C2O)C(O)C1OC1OC(CO)C(O)C(N)C1O
N      -4.47724210      4.87953128      0.33538420
C      -4.09389182      5.55306156      1.57486941
C      -2.75906074      5.05533849      2.12338273
C      -2.79851529      3.61548743      2.65310169
O      -1.61537789      3.41662163      3.44587493
C      -2.76119618      2.53778870      1.55625407
O      -3.63874000      1.69507791      1.42732661
N      -1.58815004      2.55540817      0.81977378
C      -1.32730055      1.58021661     -0.22745174
C      -0.19099780      2.05500681     -1.14886194
C       1.19723966      1.88960216     -0.52410122
N       2.22538280      2.28154491     -1.49807231
C       1.43671127      0.44448394     -0.02207059
O       2.71100141      0.39025776      0.65261183
C       3.68964632     -0.34058940     -0.09403931
O       4.98199391      0.27246458      0.05518067
C       5.84901874     -0.40621981      0.98319718
C       7.12990118      0.43925769      1.12720790
N       8.10109669     -0.13414364      2.06586516
C       6.12511914     -1.87441462      0.55195551
O       7.27959627     -2.03696118     -0.28557566
C       4.93814296     -2.44490506     -0.23407070
O       4.90284571     -3.86989564     -0.15409871
C       3.65167521     -1.83623344      0.30095552
O       2.47947767     -2.48238585     -0.21627550
C       0.32342521      0.04439206      0.96523551
O       0.50085569     -1.29117274      1.46724394
C      -1.06007540      0.15014487      0.30439314
O      -1.07365024     -0.76495145     -0.81377591
C      -2.23661913     -1.60547526     -0.82533828
O      -3.39732648     -0.78770246     -0.94325164
C      -4.64264979     -1.49122046     -1.02020488
C      -5.03755097     -2.17134272      0.30514599
O      -6.37471842     -2.66474141      0.27339079
C      -4.63196435     -2.43977073     -2.23189135
O      -5.81459390     -3.24810481     -2.29415527
C      -3.40511997     -3.35775579     -2.21927545
N      -3.39218421     -4.18742699     -3.45240400
C      -2.11560118     -2.54086703     -2.05213264
O      -1.01039371     -3.45077110     -1.90803935
H      -5.33284760      5.29723069     -0.02995262
H      -3.76196005      5.01328323     -0.37823032
H      -4.86342272      5.41227096      2.33541987
H      -4.03472130      6.63236186      1.38360365
H      -1.96557415      5.18510418      1.37154277
H      -2.46562539      5.71606066      2.95644068
H      -3.67195978      3.45068301      3.30665605
H      -1.75012722      2.57510350      3.92181154
H      -0.81045238      3.00361136      1.29012265
H      -2.23792250      1.55594558     -0.84066892
H      -0.23891398      1.48997059     -2.08604428
H      -0.35107503      3.10559678     -1.42337278
H       1.30286877      2.57552833      0.32472182
H       3.13781527      2.21610604     -1.03556263
H       2.11461754      3.26147460     -1.75735289
H       1.41513716     -0.25047967     -0.87371500
H       3.46746056     -0.26051254     -1.16656472
H       5.32825026     -0.42102628      1.95177499
H       7.60722071      0.57308119      0.15060545
H       6.85183540      1.44531838      1.46179439
H       8.90047803      0.51540884      2.12038303
H       7.70454799     -0.14715122      3.01306636
H       6.29944559     -2.47369830      1.46059481
H       8.07405070     -1.95080796      0.29791255
H       5.04490768     -2.21574732     -1.30101893
H       5.74247805     -4.17845304     -0.56289254
H       3.58908625     -1.95243726      1.39480717
H       2.78417532     -3.20189581     -0.81975862
H       0.35920765      0.69749016      1.84573542
H       1.10495211     -1.76774245      0.84573867
H      -1.81396510     -0.15003083      1.04243854
H      -2.24198229     -2.18725697      0.10398268
H      -5.42024163     -0.74620028     -1.22235980
H      -4.38191954     -3.01791632      0.53311885
H      -4.94913658     -1.46742347      1.13710960
H      -6.52633105     -3.02554575     -0.62954948
H      -4.60067863     -1.81721464     -3.13654937
H      -5.63152502     -3.88645244     -3.01954968
H      -3.49478324     -4.07655822     -1.39425518
H      -2.60281034     -4.83300746     -3.38417762
H      -3.19087038     -3.60162399     -4.26747730
H      -1.93152571     -1.92732637     -2.94186135
H      -0.63837315     -3.59375629     -2.80173160
