100
COCCNC(=O)C(NC(=O)C(Cc1cc(OC)c(OC)c(OC)c1)CC(O)C(Cc1ccccc1)NC(=O)OC(C)(C)C)C(C)C
C       7.12364669     -0.09121263      5.42041659
O       6.17979357      0.53638030      4.55989038
C       5.65896135     -0.37501410      3.59445634
C       4.71331064      0.37270220      2.65993315
N       4.04275416     -0.52090879      1.73254280
C       3.80257096     -0.16074372      0.42297916
O       4.22678220      0.87250036     -0.09311070
C       2.98661813     -1.20092062     -0.37663896
N       1.96214467     -0.45222619     -1.09768930
C       0.75659882     -0.17258062     -0.49668689
O       0.46629599     -0.57621577      0.62394886
C      -0.24133308      0.59451069     -1.35998685
C       0.23732925      2.01934882     -1.68311668
C       0.19395361      2.93494914     -0.48152980
C       1.37966636      3.35609341      0.13886467
C       1.33832814      4.21711952      1.23746616
O       2.44426830      4.70386099      1.88759883
C       3.68799166      4.07030414      1.60381383
C       0.08937587      4.64107468      1.72303257
O       0.04297366      5.51895070      2.78580517
C      -0.04428181      4.78818399      4.00572839
C      -1.10930646      4.22338777      1.12174020
O      -2.27226699      4.69729436      1.67094111
C      -3.47830457      4.05241269      1.28454385
C      -1.04342443      3.37442482      0.01675279
C      -0.55033978     -0.18171062     -2.65559308
C      -1.01270722     -1.63714070     -2.43884182
O      -1.26048011     -2.19052223     -3.74234665
C      -2.28769926     -1.77379137     -1.56052390
C      -2.68584856     -3.24751026     -1.30312270
C      -1.59916631     -4.09339580     -0.67711368
C      -0.96668964     -3.69764133      0.50982328
C       0.05124336     -4.47513490      1.06368456
C       0.43601063     -5.66685028      0.45023948
C      -0.20553008     -6.08517526     -0.71111220
C      -1.21735148     -5.30286484     -1.27387103
N      -3.39674181     -1.07259252     -2.20350707
C      -4.40798767     -0.47332466     -1.52268529
O      -4.46699452     -0.36733728     -0.30784809
O      -5.31610519     -0.01658965     -2.41145162
C      -6.51727072      0.65879683     -1.96159068
C      -7.27779388      0.99864693     -3.25256800
C      -6.18473104      1.96524950     -1.23235923
C      -7.39276771     -0.27216503     -1.11430844
C       3.89044551     -1.97968464     -1.35858909
C       4.97909896     -2.77082115     -0.62249246
C       3.06586444     -2.94872922     -2.21805790
H       6.65824346     -0.91538855      5.96674769
H       7.47460727      0.65087434      6.14089463
H       7.98071483     -0.45328332      4.84428934
H       6.47575730     -0.82583928      3.01548295
H       5.12608341     -1.18054398      4.10913876
H       3.93479586      0.88437675      3.23765421
H       5.26645520      1.14842339      2.11849164
H       3.38946248     -1.18257310      2.14235024
H       2.49783214     -1.90173625      0.31182618
H       2.29904128      0.18490622     -1.80530468
H      -1.16913354      0.66580219     -0.78031847
H       1.24706556      2.01753091     -2.11173820
H      -0.40629092      2.46597040     -2.45367402
H       2.32873780      3.01086147     -0.26184068
H       3.62326014      2.98861576      1.76002909
H       4.42936500      4.46012403      2.30622983
H       4.03084419      4.30489661      0.59099650
H       0.88459631      4.24408776      4.20332648
H      -0.89223927      4.09459021      4.00765298
H      -0.19897571      5.50700502      4.81753134
H      -4.28109602      4.42059597      1.93088964
H      -3.41461679      2.96855686      1.42053801
H      -3.74351113      4.30468948      0.25400933
H      -1.94681774      3.04372941     -0.48405998
H      -1.31162113      0.35855450     -3.23276829
H       0.33340299     -0.19667098     -3.30815815
H      -0.18039738     -2.19913179     -2.00384886
H      -1.15277906     -3.15601364     -3.66562048
H      -2.11320858     -1.30180603     -0.58703074
H      -3.56685049     -3.28305552     -0.64647554
H      -3.00829690     -3.69964806     -2.25014927
H      -1.25934233     -2.78209771      1.01939375
H       0.53801358     -4.14710528      1.97970790
H       1.21848240     -6.27818113      0.89250898
H       0.08023415     -7.02481525     -1.18102174
H      -1.71349639     -5.65409879     -2.17460404
H      -3.51076860     -1.15614419     -3.20583384
H      -6.67333447      1.64229973     -3.90092056
H      -8.22411999      1.50754169     -3.04560915
H      -7.49065879      0.09196168     -3.83002248
H      -7.09016815      2.54367961     -1.02561589
H      -5.68641516      1.78845066     -0.27545624
H      -5.50675411      2.58197443     -1.82823386
H      -6.93240936     -0.50240266     -0.14925214
H      -8.37026873      0.17850683     -0.91304368
H      -7.54846001     -1.22949967     -1.62616441
H       4.38881450     -1.27020258     -2.03343131
H       5.67153570     -2.10146342     -0.10118366
H       5.57177577     -3.36265951     -1.32984632
H       4.54371119     -3.45692311      0.11236729
H       2.52509925     -3.66959260     -1.59447769
H       2.33919124     -2.41037245     -2.83347943
H       3.71400312     -3.51074471     -2.90033303
